15

O      -0.037410    1.419720   -0.001702
C       0.005695    0.028794   -0.012383
C       0.438875   -0.720614   -1.311552
C      -0.896272   -1.497457   -1.258543
O      -1.395455   -2.331134   -1.951966
C      -1.357844   -0.742035    0.010767
C      -0.915521   -1.385557    1.351698
O       0.325307   -2.074869    1.128988
C       0.363253   -0.661721    1.344419
H       0.866893    1.754067   -0.005913
H       0.471421   -0.041842   -2.170381
H       1.340972   -1.334637   -1.284195
H      -2.312404   -0.216954    0.009923
H      -1.540093   -1.743687    2.160906
H       0.983885   -0.283568    2.150374
