21

C      -0.176007    1.398549   -0.168431
C       1.233832    1.017468    0.174617
C       0.163460   -0.058958    0.097550
C      -0.314503   -0.741960    1.303514
C      -0.703982   -2.010095    1.496660
C      -1.078653   -2.054083    2.985060
C      -1.881588   -0.714168    3.110193
C      -0.488066   -0.120691    2.707198
C       0.122615   -1.256309    3.598329
H      -0.760829    1.922298    0.579674
H      -0.403718    1.681760   -1.190084
H       1.982680    1.036713   -0.609404
H       1.610523    1.281294    1.156703
H       0.205352   -0.695419   -0.781692
H      -0.754105   -2.829388    0.793342
H      -1.435622   -2.992456    3.408582
H      -2.713829   -0.560242    2.419320
H      -2.174067   -0.470503    4.137158
H      -0.239150    0.930873    2.853053
H       0.021317   -1.064442    4.671874
H       1.130830   -1.600203    3.355706
