15

C      -0.421012    1.265083   -0.059627
N       0.475526    0.127646    0.156410
C       0.782542   -0.665853   -0.917178
C       0.516178   -1.946178   -1.274369
O      -0.179884   -2.862504   -0.578434
N       1.064198   -2.259598   -2.509627
C       1.641677   -1.149200   -2.858968
O       2.321930   -0.916025   -3.979818
O       1.552405   -0.136825   -2.017425
H      -0.004593    2.036121   -0.723988
H      -1.354617    0.902061   -0.498085
H      -0.652257    1.725620    0.905382
H       1.272515    0.372771    0.731887
H      -0.180676   -3.667646   -1.109243
H       2.305443   -1.735596   -4.490661
