13

O       0.419969    0.869543   -0.684841
C      -0.033110    0.002695    0.332024
C      -1.448855   -0.419042    0.096610
C      -2.285902   -0.358143   -0.975972
N      -3.510036   -0.897266   -0.632834
C      -3.365341   -1.256062    0.606197
O      -2.132826   -0.992807    1.124444
C      -4.318241   -1.870380    1.457458
N      -5.091267   -2.370868    2.157672
H      -0.068261    1.696865   -0.612815
H       0.630208   -0.870029    0.306960
H       0.055150    0.438332    1.338794
H      -2.086806    0.028224   -1.961634
