13

N       0.094596    1.382087    0.134737
C      -0.009234    0.020125    0.045453
N      -1.160324   -0.613983    0.019413
O      -0.755909   -1.984216    0.004025
C       0.566751   -1.963482    0.009591
N       1.286329   -3.133922   -0.005596
C       0.809167   -4.436832   -0.048215
O      -0.345764   -4.760766   -0.081972
N       1.111001   -0.780006    0.033142
H       0.950005    1.758799   -0.243227
H      -0.735771    1.890761   -0.128920
H       2.285990   -2.993221    0.017158
H       1.655420   -5.149458   -0.047402
