21

C       0.307521    1.502987   -0.474075
C       0.079372    0.130688    0.160621
C       1.045089   -0.936593   -0.403210
C       0.223858    0.179865    1.677855
O       0.743869    1.105637    2.258073
C      -0.301600   -1.037814    2.460359
C       0.866505   -1.815089    3.084202
C       1.438825   -1.236961    4.357436
O       1.295362   -2.813216    2.554372
H       1.314449    1.867077   -0.253694
H       0.189731    1.443494   -1.560233
H      -0.400004    2.243145   -0.090405
H      -0.945726   -0.207454   -0.046879
H       2.083662   -0.618530   -0.264759
H       0.925720   -1.907338    0.085212
H       0.871376   -1.064919   -1.475452
H      -0.952037   -0.648122    3.249638
H      -0.862615   -1.715944    1.816567
H       0.705008   -1.340409    5.166051
H       2.356788   -1.758126    4.630971
H       1.616296   -0.164719    4.225703
