19

C       0.048529    1.473289    0.032795
C      -0.010250   -0.021800   -0.011370
C      -0.113536   -0.775671   -1.114254
C       0.050897   -2.244635   -0.854964
O       1.386150   -2.386684   -0.227056
C       0.741776   -2.245147    1.025518
C      -0.623441   -2.720619    0.502875
C      -1.341746   -1.627843    1.298035
C       0.003233   -0.825052    1.267220
H       0.996827    1.813078    0.468972
H      -0.040032    1.908593   -0.966452
H      -0.749259    1.888855    0.661490
H      -0.174837   -0.377501   -2.120938
H      -0.049222   -2.893459   -1.725446
H       1.310048   -2.647013    1.866433
H      -0.955742   -3.759124    0.510727
H      -2.220253   -1.137043    0.871545
H      -1.573213   -1.992265    2.304197
H       0.277201   -0.248857    2.152028
