21

O      -0.001322    1.406909   -0.118313
C       0.040727   -0.011839   -0.090939
C      -1.390113   -0.522474    0.008664
C      -1.472847   -2.048942    0.064505
C      -2.919511   -2.566945    0.102204
O      -3.665667   -2.138972   -1.023668
C      -2.950835   -4.085721    0.201056
C      -4.099251   -4.864396   -0.268311
O      -2.907394   -4.757863   -1.066267
H       0.899887    1.733110   -0.194672
H       0.516336   -0.414767   -1.000682
H       0.628857   -0.375669    0.768581
H      -1.852258   -0.087735    0.903967
H      -1.962547   -0.156349   -0.848916
H      -0.970884   -2.489695   -0.808299
H      -0.941873   -2.424775    0.950226
H      -3.426971   -2.147242    0.981386
H      -3.406002   -2.729822   -1.744964
H      -2.303149   -4.523891    0.961256
H      -4.286101   -5.853112    0.146023
H      -4.963852   -4.339564   -0.666187
