16

O      -0.123604    0.078526    0.166476
C      -0.023598    1.252312    0.024349
O      -1.031769    2.152709   -0.260625
C      -0.094434    3.280311   -0.312426
C      -0.014806    4.169673    0.932851
C       1.538119    4.325270    0.996163
N       1.560694    2.835260    1.342626
C       0.247528    3.134976    2.051164
C       1.079396    2.326100    0.026820
H      -0.159763    3.790899   -1.271912
H      -0.713315    5.000927    1.027286
H       2.086309    4.597080    0.089313
H       1.890350    4.915310    1.844028
H       0.461010    3.593942    3.017319
H      -0.429209    2.289645    2.182443
H       1.902673    2.176464   -0.670276
