11

N       0.010284    1.404192    0.168499
C      -0.042126    0.011320    0.055308
C      -1.137339   -0.820348    0.029573
N      -0.605516   -2.101238   -0.019770
C       0.743313   -1.980645   -0.017902
N       1.120307   -0.719345    0.023785
H       0.920592    1.745551   -0.112629
H      -0.715732    1.878879   -0.351101
H      -2.197965   -0.639552    0.050349
H      -1.130567   -2.957912   -0.052692
H       1.403122   -2.834386   -0.050356
