17

C      -0.280621    1.498053   -0.174786
N      -0.129866    0.065316    0.035136
C       1.165221   -0.525236   -0.258623
C       0.702060   -0.415061    1.157077
C       1.356959    0.486584    2.130420
C       1.057653    0.612464    3.454590
O       1.855024    1.509024    4.048236
N       2.736044    2.022398    3.102998
C       2.435420    1.412547    1.984509
H       0.632157    2.087626    0.000295
H      -0.597990    1.662508   -1.209041
H      -1.063653    1.879942    0.487390
H       1.155812   -1.487777   -0.763624
H       1.970327    0.138654   -0.572725
H       0.281267   -1.306362    1.617522
H       0.328607    0.134299    4.090845
H       3.008952    1.644689    1.098607
