21

C      -0.116651    1.516362    0.070020
C      -0.028324    0.016214    0.004493
C      -0.121658   -0.673788   -1.136536
C      -0.037990   -2.180847   -1.216706
O       0.366149   -2.615610   -2.512775
C       0.887041   -2.746115   -0.124037
C       0.607260   -2.142729    1.250516
C       1.522025   -1.076077    1.806609
C       0.141914   -0.708028    1.296862
H       0.785940    1.943352    0.525026
H      -0.245557    1.957836   -0.921827
H      -0.959534    1.835138    0.696879
H      -0.278342   -0.163031   -2.084433
H      -1.042745   -2.609430   -1.097396
H       1.227737   -2.221447   -2.690291
H       0.793564   -3.835874   -0.097099
H       1.919685   -2.530048   -0.427533
H       0.161567   -2.815223    1.976213
H       1.699771   -1.045811    2.876516
H       2.373760   -0.786595    1.198820
H      -0.582663   -0.443714    2.064158
