17

O       0.091573    1.411844   -0.047728
C       0.006062    0.026722    0.009011
C       0.217691   -0.695877    1.367206
O      -0.503651    0.038109    2.381995
C      -1.862076   -0.329167    2.174005
C      -1.812074   -1.855874    2.068479
C      -0.820428   -1.784701    0.915622
C      -1.389971   -0.653147   -0.013007
O      -2.261339    0.084841    0.872974
H      -0.495097    1.741013    0.645593
H       0.658966   -0.390094   -0.764386
H       1.213803   -0.936693    1.739051
H      -2.489484    0.155010    2.919792
H      -1.413484   -2.326076    2.969244
H      -2.776632   -2.289835    1.798951
H      -0.446577   -2.692873    0.452044
H      -1.915073   -0.853527   -0.947146
