20

C       0.002630    1.469145    0.036732
C       0.015602    0.013594    0.012446
C       0.025662   -1.189818   -0.028200
C       0.047787   -2.648132   -0.009895
C       0.727825   -3.166842    1.278471
O       0.714965   -4.580528    1.325820
C      -0.605595   -5.099598    1.284203
C      -1.319865   -4.654597    0.007020
N      -1.311196   -3.199784   -0.175030
H       0.845512    1.882243   -0.528164
H      -0.917899    1.863529   -0.407405
H       0.068911    1.853587    1.060477
H       0.640614   -3.019301   -0.858710
H       1.776416   -2.858706    1.316292
H       0.206088   -2.741568    2.152968
H      -0.512226   -6.189187    1.334817
H      -1.173214   -4.759528    2.168850
H      -0.815025   -5.107247   -0.856312
H      -2.357768   -5.004669    0.003269
H      -1.920240   -2.761807    0.511703
