19

C       0.572754    1.488129   -0.243037
C       0.039888    0.088652    0.039192
C       0.664586   -1.047883   -0.829135
N       1.355426   -1.594102    0.371490
C       0.626848   -0.671605    1.277231
C       1.704277   -0.057109    2.206147
N       2.921289   -0.597224    1.630660
C       2.736099   -1.334942    0.480072
O       3.592151   -1.688207   -0.298858
H       1.667787    1.514119   -0.240611
H       0.239049    1.829264   -1.228549
H       0.214728    2.212503    0.496343
H      -1.053595    0.099650    0.030682
H      -0.058198   -1.756944   -1.241324
H       1.356651   -0.741494   -1.618696
H      -0.146737   -1.182064    1.857182
H       1.688979    1.040209    2.198308
H       1.562547   -0.385073    3.242539
H       3.845744   -0.288774    1.876750
