19

C       0.107397    1.563711    0.068950
C      -0.261301    0.110177   -0.243722
C       0.674370   -0.526979   -1.250935
O       2.055532   -0.634451   -0.729613
C       2.059271   -2.004559   -0.870974
O       2.936874   -2.766671   -0.614165
C       0.665340   -2.044499   -1.417829
C      -0.389937   -3.077980   -1.130450
C       0.158888   -2.933017   -2.520200
H       1.123715    1.624563    0.467553
H       0.060634    2.187532   -0.830326
H      -0.576280    1.990130    0.808281
H      -0.252466   -0.491225    0.672665
H      -1.280862    0.056389   -0.648128
H       0.698992    0.033221   -2.191821
H      -0.087273   -3.936023   -0.540378
H      -1.395295   -2.720297   -0.935582
H      -0.471155   -2.476656   -3.276382
H       0.841249   -3.690920   -2.889251
