19

O      -0.063927    1.404996   -0.061044
C       0.011356   -0.002349    0.032484
C      -1.388744   -0.629274    0.060075
C      -0.996130   -2.058836    0.494395
C      -0.291000   -2.718008   -0.717114
O       0.886623   -2.018680   -1.095404
C       0.746233   -0.609407   -1.192442
C       0.030906   -1.751530    1.577372
C       0.608711   -0.580614    1.313267
H       0.832571    1.757731   -0.072579
H      -2.006284   -0.131011    0.811529
H      -1.895167   -0.586514   -0.909349
H      -1.836848   -2.679571    0.816968
H       0.038416   -3.735291   -0.484745
H      -1.000440   -2.772078   -1.560006
H       0.197500   -0.319679   -2.103434
H       1.767138   -0.216256   -1.270002
H       0.295881   -2.439613    2.371630
H       1.435101   -0.121562    1.844405
