21

C       0.028547    1.395179    0.008053
O       0.073545   -0.021276   -0.017509
C       0.699259   -0.588838    1.079892
C       0.538233   -2.102138    1.016722
C       1.471472   -2.761135    1.997841
C       2.493474   -2.117754    2.563777
C       3.411316   -2.731237    3.582477
C       2.775865   -0.679807    2.194244
O       2.076404   -0.243301    1.046134
H       1.033124    1.829916   -0.020609
H      -0.530463    1.709319   -0.875801
H      -0.490636    1.759768    0.907564
H       0.264591   -0.194898    2.022485
H      -0.503392   -2.367355    1.232296
H       0.739705   -2.426845   -0.012224
H       1.279611   -3.801162    2.251462
H       3.116733   -3.756928    3.818826
H       4.449776   -2.747126    3.226975
H       3.411560   -2.155778    4.517572
H       2.554125   -0.025866    3.059611
H       3.840986   -0.546907    1.968334
