19

O      -0.010248    1.428796    0.169298
C       0.051086    0.020695   -0.016692
C       0.641658   -0.669363    1.214196
C      -0.119342   -1.700357    1.602602
C      -0.769143   -1.794880    2.959518
C      -1.992517   -0.864512    2.598163
C      -2.231500   -1.063923    1.072668
C      -1.298650   -0.685750   -0.134811
C      -1.185950   -2.003197    0.562650
H      -0.617794    1.590758    0.899788
H       0.622905   -0.105145   -0.945026
H       1.339286   -0.128681    1.846295
H      -1.114272   -2.799367    3.224058
H      -0.163211   -1.398974    3.777107
H      -2.899788   -1.152737    3.140384
H      -1.761324    0.169076    2.875561
H      -3.266856   -1.173999    0.763197
H      -1.832242   -0.604848   -1.077981
H      -1.339911   -2.983242    0.126004
