20

C      -0.001925    1.487477    0.118630
C      -0.052288   -0.019674    0.116033
C      -1.351618   -0.712827   -0.320502
C      -1.385135   -2.025000    0.456225
C      -1.524406   -1.938042    1.969745
C      -0.168617   -2.122444    1.340126
O       0.489464   -3.351229    1.443495
C       0.644844   -0.878204    1.120024
N       1.204255   -0.704735   -0.231035
H       0.978598    1.839534    0.447660
H      -0.178764    1.882638   -0.888577
H      -0.768011    1.906154    0.780853
H      -2.219553   -0.082619   -0.090753
H      -1.361656   -0.878072   -1.405314
H      -1.762280   -2.923571   -0.017850
H      -1.779387   -0.983749    2.421711
H      -1.948270   -2.808006    2.459813
H       0.887748   -3.404445    2.319268
H       1.240870   -0.467269    1.932498
H       1.027489   -1.543547   -0.781545
