19

C      -0.000714    1.591799   -0.001628
C       0.020466    0.083976   -0.018221
C       0.705580   -0.772515   -1.136245
C      -0.165019   -1.955987   -0.593674
C      -0.438714   -3.225368   -1.360498
C       0.306249   -1.999095    0.854354
C       0.423494   -0.709637    1.218096
C      -1.242098   -0.809991   -0.375599
O      -2.412118   -0.664984   -0.512507
H       1.007196    2.001276    0.125382
H      -0.412685    1.990580   -0.933592
H      -0.620049    1.965066    0.820465
H       0.431961   -0.461387   -2.150987
H       1.786689   -0.900630   -1.030556
H       0.479437   -3.803079   -1.511943
H      -1.149810   -3.861170   -0.823062
H      -0.867121   -3.007545   -2.343515
H       0.379703   -2.892244    1.460116
H       0.616572   -0.287171    2.194979
