19

C      -0.502300    1.250025   -0.017960
C      -0.187694   -0.191558    0.318362
C       1.066865   -0.921041   -0.136453
C       2.258998   -0.076828   -0.423702
C       2.717137    0.544500    0.666723
C       1.941985    0.146861    1.913987
C       1.488142    1.326431    2.758861
O       1.842075    1.515558    3.894928
C       0.793248   -0.707001    1.353182
H       0.395415    1.868025   -0.080254
H      -1.011186    1.306166   -0.987026
H      -1.169553    1.691607    0.729958
H      -1.070478   -0.826680    0.272630
H       0.966770   -1.888980   -0.616210
H       2.682321    0.022758   -1.417114
H       3.546582    1.241543    0.700344
H       2.572800   -0.459951    2.576653
H       0.790733    2.028701    2.255229
H       0.452812   -1.526509    1.975025
