13

F       0.136969    0.111952   -0.141640
C      -0.018054    1.437259    0.000180
F       1.210265    1.981267    0.038387
F      -0.626810    1.894202   -1.102988
C      -0.814989    1.777889    1.243616
C      -0.144356    1.262014    2.524722
C      -0.836090    1.783443    3.766472
O      -1.228487    1.097946    4.672486
H      -0.923299    2.867269    1.268212
H      -1.813655    1.348643    1.121660
H      -0.125265    0.170735    2.557894
H       0.891868    1.626063    2.548964
H      -0.957315    2.892519    3.789963
