16

C      -0.003875    1.534509   -0.019493
C      -0.007612    0.002179    0.035612
C      -1.428330   -0.566777   -0.058969
O       0.752335   -0.491913   -1.088701
C       1.828047   -1.229073   -0.662495
O       2.603960   -1.740834   -1.418992
C       1.798577   -1.236907    0.822038
C       0.746990   -0.531717    1.229049
H       1.019370    1.916865    0.008186
H      -0.479464    1.874977   -0.943147
H      -0.556169    1.950114    0.828921
H      -1.904183   -0.227929   -0.983081
H      -1.404963   -1.659225   -0.058167
H      -2.033959   -0.228754    0.787503
H       2.544218   -1.753340    1.408354
H       0.430411   -0.336163    2.246133
