18

C       0.010724    1.525878   -0.071861
C      -0.009582    0.015888    0.014827
C      -1.203838   -0.693752   -0.625941
C      -1.857035   -1.662467    0.350242
O      -0.911670   -2.554683    0.965751
C       0.112010   -1.995870    1.671745
O       0.620497   -2.601878    2.573928
C       0.605063   -0.660695    1.201853
N       1.304777   -0.619648   -0.109069
H       0.918882    1.924332    0.386430
H      -0.010285    1.849447   -1.118503
H      -0.858605    1.958830    0.434824
H      -1.953834    0.038766   -0.942004
H      -0.883623   -1.224672   -1.530442
H      -2.382469   -1.111060    1.140418
H      -2.580526   -2.312928   -0.145846
H       1.093749   -0.086850    1.982606
H       1.223687   -1.525114   -0.569018
