17

O      -0.045060    1.411975    0.054423
C      -0.017313    0.031791    0.025482
C      -1.288495   -0.879011    0.084193
C      -0.404514   -1.882372    0.779472
C      -0.497492   -1.864446   -0.752012
C       0.538107   -0.806128   -1.157088
O       1.900172   -1.106412   -0.917382
C       2.065875   -1.214014    0.513640
C       0.698463   -0.859202    1.100822
H       0.805835    1.740361   -0.258811
H      -2.344888   -0.670746    0.142303
H      -0.696844   -2.750205    1.355637
H      -0.858971   -2.711791   -1.319034
H       0.424161   -0.389780   -2.159053
H       2.379924   -2.233414    0.772138
H       2.859608   -0.523162    0.828689
H       0.690536   -0.470869    2.119361
