17

C       0.270251    1.005374   -1.850187
C       0.284264   -0.266101   -1.031034
C       1.257956   -1.374514   -1.340640
N       1.374550   -0.632911   -0.102435
C       2.498346    0.284042    0.052939
C       3.642638   -0.420115    0.642684
N       4.555993   -0.965853    1.091138
C      -1.048052   -0.693632   -0.485369
O      -2.097122   -0.194376   -0.801027
H       1.208798    1.173514   -2.381452
H      -0.533694    0.940302   -2.587167
H       0.058123    1.876270   -1.221814
H       0.974741   -2.419132   -1.243042
H       1.963146   -1.164566   -2.143755
H       2.838307    0.749904   -0.884546
H       2.201586    1.093092    0.729561
H      -0.979274   -1.527204    0.246478
