19

C       0.280774    0.986417    0.418025
O      -0.401647   -0.020025   -0.309879
C       0.373370   -0.596015   -1.306126
C       1.472057   -1.617854   -1.012599
C       1.039723   -2.516618    0.101373
O       1.614675   -2.978929    1.047173
C      -0.332171   -2.820662   -0.542597
C       0.115214   -1.976167   -1.753428
C      -0.089971   -2.379959   -3.184403
H       1.167181    0.582633    0.925389
H       0.594994    1.812486   -0.237049
H      -0.418550    1.370198    1.163338
H       0.669242    0.102565   -2.093907
H       2.481453   -1.487840   -1.386188
H      -0.414673   -3.888130   -0.768412
H      -1.223131   -2.481793   -0.011528
H      -1.152412   -2.332419   -3.450596
H       0.454003   -1.720073   -3.867287
H       0.251097   -3.405826   -3.359592
