11

O      -0.023815   -0.052294    0.003145
C       0.006040    1.159859    0.010176
N      -1.083345    2.007534    0.028198
C      -0.723827    3.404266    0.031332
C       0.782719    3.340881    0.011126
C       1.192062    2.072068   -0.001456
H      -2.025844    1.658504    0.038805
H      -1.114846    3.942445   -0.845103
H      -1.091610    3.932505    0.923722
H       1.394545    4.233369    0.007694
H       2.203380    1.692420   -0.017284
