13

O       0.085115    0.137228   -0.883406
C       0.038129    1.188475   -0.270882
N       1.109204    1.751175    0.362134
C       2.438122    1.159431    0.285545
C       3.459196    2.142809   -0.060001
C       4.296269    2.964580   -0.318403
C      -1.185104    1.968330   -0.137525
C      -2.210472    2.588614   -0.043875
H       0.998954    2.646800    0.809768
H       2.698718    0.674046    1.236322
H       2.377456    0.368439   -0.468674
H       5.041441    3.680854   -0.562320
H      -3.123663    3.127192    0.030289
