17

C      -0.297129    1.441759    0.041101
C      -0.082386   -0.031960    0.023581
O       0.873186   -0.585656   -0.892731
C       0.309093   -1.885975   -0.581964
C       0.759102   -2.154894    0.882206
C      -0.155792   -0.987665    1.238430
C      -1.005491   -1.202161   -0.012264
C       0.411120   -2.892290   -1.680228
O       0.108106   -4.050984   -1.544589
H       0.616127    1.961674    0.348858
H      -0.584769    1.806789   -0.949529
H      -1.090374    1.699218    0.749093
H       0.365790   -3.109306    1.237078
H       1.833659   -2.073570    1.070890
H      -0.486445   -0.658467    2.215479
H      -2.063013   -1.344069   -0.186904
H       0.779748   -2.479245   -2.644132
