19

C       0.159938    1.663647   -0.100737
C       0.096407    0.158800    0.017387
C       1.283925   -0.734736   -0.152407
O       2.544317   -0.102786   -0.123781
C       2.968194    0.091160    1.228395
C       3.739271    1.387045    1.404392
C       1.699270   -0.033472    2.087703
O       1.628390    0.222512    3.263391
C       0.645168   -0.640215    1.213663
H       1.174262    2.035157    0.054236
H      -0.151961    1.973338   -1.103681
H      -0.502629    2.148408    0.622648
H      -0.834525   -0.276800   -0.339358
H       1.251021   -1.626954   -0.770027
H       3.612747   -0.755495    1.523437
H       3.137971    2.252823    1.114477
H       4.010526    1.493803    2.458219
H       4.650576    1.380094    0.801474
H       0.010970   -1.397966    1.656719
