18

C      -0.054751    1.339648    0.000841
O       0.000305   -0.085957    0.035426
C       0.645500   -0.593761    1.097677
N       1.202415    0.056645    2.084000
C       1.702334   -0.938263    2.911483
C       1.443053   -2.177121    2.398773
N       1.774959   -3.494834    2.772064
N       0.753486   -1.946460    1.201417
C       0.277434   -2.938058    0.260890
H       0.952219    1.766831   -0.023852
H      -0.599758    1.594232   -0.909002
H      -0.575478    1.729029    0.880749
H       2.225318   -0.696943    3.824648
H       2.667721   -3.523218    3.248702
H       1.082730   -3.917272    3.384056
H      -0.801265   -3.104201    0.358988
H       0.484598   -2.610620   -0.760253
H       0.802961   -3.872406    0.464257
