17

C       0.033701    1.495821   -0.041601
C       0.025552    0.040703   -0.021363
C       0.010230   -1.163867    0.003084
C       0.016469   -2.610459    0.007307
C      -0.019622   -3.314041    1.424306
O      -1.445646   -3.003549    1.481058
C      -1.395284   -3.323748    0.056954
C      -0.977543   -4.802012    0.075574
C      -0.030258   -4.795325    1.017101
H       1.056364    1.889123   -0.050933
H      -0.476922    1.883483   -0.930277
H      -0.473239    1.908019    0.837796
H       0.731781   -3.021844   -0.709349
H       0.560704   -2.965146    2.276212
H      -2.253127   -2.984988   -0.520622
H      -1.359314   -5.597825   -0.546223
H       0.599474   -5.584008    1.400656
