17

N      -0.815690   -0.724665   -1.253415
C      -0.495932    0.230987   -0.687433
C      -0.084087    1.457784   -0.001625
N      -0.004348    1.365154    1.471476
C       1.288978    2.098241    1.503644
C       2.420970    1.320677    2.198009
C       2.965462    0.458975    1.081185
C       2.436043    0.743551   -0.109355
C       1.431875    1.858542   -0.031634
H      -0.711150    2.279692   -0.373410
H      -0.776725    1.794660    1.967233
H       1.208867    3.142978    1.820404
H       3.192723    1.983789    2.611261
H       2.026119    0.726234    3.030148
H       3.714050   -0.306471    1.254338
H       2.684500    0.249349   -1.041188
H       1.651761    2.702380   -0.688927
