13

C      -0.016817    1.428407   -0.145489
N       0.005214   -0.025435   -0.150365
C      -1.053270   -0.651140    0.151136
O      -2.226872   -0.001676    0.484449
N      -3.380623   -0.726955    0.813545
C      -3.272627   -2.004913    0.784174
N      -2.156998   -2.779914    0.467435
C      -1.105532   -2.107023    0.167523
H       0.969729    1.801405   -0.426111
H      -0.759098    1.823947   -0.851258
H      -0.277399    1.825556    0.844412
H      -4.179503   -2.541154    1.042694
H      -0.184431   -2.623700   -0.093905
