19

C       0.010628    1.565956    0.081533
C      -0.014285    0.039183   -0.003448
C       0.703848   -0.490188   -1.262531
O       2.060604   -0.050521   -1.328125
C       0.605210   -1.947169   -1.359102
C       0.548881   -3.156910   -1.398733
C       0.483864   -4.514128   -1.450631
C       0.426666   -5.722357   -1.495750
C       0.357196   -7.171156   -1.552439
H       1.038413    1.936183    0.055170
H      -0.528472    2.016775   -0.759148
H      -0.460391    1.913602    1.005507
H       0.467488   -0.403600    0.877659
H      -1.045100   -0.333096   -0.012705
H       0.229710   -0.041241   -2.145624
H       2.560126   -0.564572   -0.683550
H       1.078387   -7.574837   -2.272064
H       0.574150   -7.618148   -0.575664
H      -0.640460   -7.506577   -1.857717
