17

O      -0.020240    1.425840   -0.063999
C       0.026927    0.046120    0.135776
C      -1.358390   -0.576009    0.032936
O      -2.327175    0.134461   -0.102742
C      -1.460451   -2.109022    0.088899
O      -2.734390   -2.521225    0.538381
C      -3.474788   -3.098399   -0.538368
C      -2.482266   -3.234297   -1.657767
C      -1.324634   -2.689320   -1.303970
H      -0.965879    1.636929   -0.129278
H       0.694617   -0.438117   -0.596054
H       0.430768   -0.209953    1.131702
H      -0.689076   -2.485744    0.779245
H      -3.886699   -4.063112   -0.210657
H      -4.320237   -2.449789   -0.812405
H      -2.712891   -3.708028   -2.603196
H      -0.420335   -2.619119   -1.893323
