17

C      -0.154807    1.285129   -0.057318
N       0.108547   -0.146549    0.054966
C       1.519730   -0.498236   -0.134122
C       0.891680   -0.511384    1.236237
C       0.963098   -2.058324    1.287287
N      -0.288819   -2.789196    1.123558
C      -0.352578   -3.059004   -0.115727
O       0.673713   -2.739624   -0.956796
C       1.613592   -2.031032   -0.134600
H       0.661209    1.922807    0.322564
H      -0.323462    1.533816   -1.109242
H      -1.064356    1.521276    0.502558
H       2.211478    0.207973   -0.577910
H       1.010638    0.185583    2.057175
H       1.567465   -2.440923    2.111770
H      -1.173009   -3.572136   -0.605013
H       2.611907   -2.445227   -0.278077
