20

C       0.042210    1.525603    0.068243
C      -0.071222    0.036808   -0.070470
C      -1.006893   -0.793102    0.709997
N       0.433445   -0.940153    1.002331
C       1.039913   -1.780728   -0.104874
C       0.404880   -3.116469   -0.510106
C      -0.497287   -2.771973   -1.725254
O      -0.183393   -1.442529   -2.153935
C       0.603793   -0.782408   -1.188647
H       1.064077    1.867530   -0.129595
H      -0.624397    2.030525   -0.640958
H      -0.231110    1.844788    1.078213
H      -1.535746   -0.294901    1.517838
H      -1.566771   -1.606393    0.261682
H       2.111615   -1.858799    0.077018
H       1.186720   -3.823476   -0.799113
H      -0.161201   -3.571014    0.307412
H      -0.325138   -3.444906   -2.572709
H      -1.563092   -2.836428   -1.468674
H       1.392768   -0.223926   -1.700445
