22

C       2.269246    0.031200    0.635751
C       2.030032   -1.473051    0.470354
C       1.778504   -1.825252   -0.992574
N       1.151019   -3.123335   -1.296200
C       0.432931   -1.881183   -1.631858
C      -0.872750   -1.621608   -0.919841
C       3.248365   -2.290368    0.927200
C       2.954916   -3.665723    1.486942
O       4.373754   -1.861689    0.802868
H       3.183828    0.327943    0.116553
H       1.430534    0.605730    0.231866
H       2.390098    0.294977    1.690482
H       1.161201   -1.791734    1.054276
H       2.597364   -1.511864   -1.640099
H       1.567952   -3.540694   -2.123228
H       0.420861   -1.601897   -2.685351
H      -0.834862   -1.949084    0.121212
H      -1.124927   -0.555956   -0.942149
H      -1.685630   -2.169492   -1.408197
H       2.433802   -3.565969    2.447191
H       2.275969   -4.199335    0.813111
H       3.881275   -4.222797    1.634187
