17

C       0.102794    1.501614    0.024172
C      -0.065283    0.025824    0.043097
C      -1.128312   -0.821623   -0.019156
C      -2.578562   -0.901199   -0.127120
C      -2.949090   -2.195828   -0.127428
C      -1.756095   -3.139229   -0.017022
C      -0.612340   -2.163981    0.048592
C       0.729692   -2.051340    0.147671
O       1.080982   -0.724265    0.145834
H       0.719085    1.827943   -0.821883
H      -0.873412    1.984678   -0.059872
H       0.586198    1.865674    0.938447
H      -3.250385   -0.054952   -0.196037
H      -3.967650   -2.557616   -0.196706
H      -1.829382   -3.780202    0.871558
H      -1.697051   -3.817659   -0.878439
H       1.552292   -2.742864    0.224683
