23

C      -0.069009    1.500699    0.109913
C      -0.275497    0.028030   -0.198798
O       0.900177   -0.471523   -0.812611
C       0.840849   -1.836697   -1.115359
C       0.107575   -2.252292   -2.412571
O       1.317879   -2.807259   -2.962768
C       2.106863   -2.378408   -1.820297
C       3.193246   -1.383949   -2.195212
C       4.214720   -1.998185   -3.156783
H       0.784213    1.635252    0.780631
H       0.125618    2.061503   -0.808551
H      -0.959206    1.917768    0.589977
H      -0.485017   -0.538793    0.723962
H      -1.143300   -0.108071   -0.864553
H       0.537772   -2.413954   -0.230173
H      -0.683086   -3.005954   -2.314953
H      -0.266715   -1.403237   -2.999608
H       2.550403   -3.251687   -1.321181
H       2.727980   -0.500687   -2.643323
H       3.683967   -1.045353   -1.274365
H       3.717529   -2.359296   -4.061530
H       4.970357   -1.263840   -3.451142
H       4.733945   -2.847301   -2.697867
