15

C       0.186269    1.396560   -0.388222
C       0.055932   -0.074823   -0.143374
C      -0.300337   -1.060132   -1.040128
N      -0.313206   -2.244911   -0.380978
N       0.006157   -2.104050    0.920169
C       0.235875   -0.802836    1.060509
O      -0.659353   -1.009305   -2.358600
C       0.323767   -0.696290   -3.265011
O       0.091254   -0.585940   -4.424198
H       1.231517    1.725629   -0.383057
H      -0.244562    1.675414   -1.354271
H      -0.337398    1.971165    0.382229
H      -0.573755   -3.145155   -0.748103
H       0.519211   -0.413754    2.028321
H       1.305865   -0.570625   -2.777351
