25

C      -1.079068    0.840002   -0.347489
C      -0.692854   -0.625520   -0.127253
C       0.373514   -0.801869    0.962116
C       0.794524   -2.259113    1.239435
C       1.695632   -2.792047    0.121926
O       1.863825   -4.191045    0.309510
C       1.496080   -2.415792    2.601303
C       0.543734   -2.421772    3.790663
O       1.326038   -2.524087    4.972739
H      -0.213019    1.435541   -0.657410
H      -1.845777    0.939877   -1.122184
H      -1.473595    1.288030    0.571490
H      -1.585519   -1.201888    0.149446
H      -0.341713   -1.051056   -1.075119
H       1.266675   -0.215652    0.699813
H      -0.006358   -0.356265    1.889667
H      -0.105637   -2.891341    1.238973
H       1.246920   -2.585307   -0.861065
H       2.664771   -2.266487    0.157852
H       2.508828   -4.505883   -0.329866
H       2.053917   -3.356391    2.610496
H       2.225001   -1.606625    2.740950
H      -0.068809   -1.505628    3.805869
H      -0.150385   -3.273306    3.697992
H       0.728643   -2.545610    5.725792
