19

O      -0.324915    0.340327   -0.738237
C       0.662935    0.622431   -0.106921
C       1.332070    1.966935   -0.108298
C       0.695119    3.108654   -0.932940
C       0.807212    4.068546    0.287348
C      -0.505849    4.668765    0.827100
C      -0.985061    3.615184    1.800061
C      -0.094054    2.642859    1.998609
C       1.164763    2.843753    1.197364
H       1.144749   -0.131021    0.560462
H       2.398069    1.817671   -0.316996
H       1.232787    3.404741   -1.835801
H      -0.337172    2.872569   -1.202578
H       1.605398    4.804154    0.176715
H      -0.354426    5.632492    1.332414
H      -1.229849    4.854215    0.023122
H      -1.952947    3.674159    2.286733
H      -0.235870    1.801421    2.668598
H       2.061323    2.895253    1.822830
