23

C      -1.017870    1.119387    0.003701
C      -0.068206   -0.063078   -0.122167
C       1.204403    0.095529   -0.999723
C       2.057073   -0.614606    0.090270
C       3.240925    0.185897    0.663913
C       2.582627    1.024750    1.737243
C       1.311548    0.683445    1.951985
C       0.849847   -0.466353    1.086972
C       0.393981   -1.671764    1.904866
H      -0.484569    2.020746    0.323778
H      -1.497571    1.338476   -0.957037
H      -1.813550    0.923601    0.731966
H      -0.631844   -0.948486   -0.440179
H       1.177942   -0.373056   -1.986750
H       1.493883    1.143964   -1.126416
H       2.311704   -1.644770   -0.168415
H       4.024933   -0.456273    1.089212
H       3.731674    0.797321   -0.105106
H       3.113872    1.804491    2.273877
H       0.663841    1.144538    2.691625
H      -0.502162   -1.435970    2.491965
H       0.149968   -2.519343    1.254837
H       1.171908   -1.993642    2.605961
