17

C      -0.196816    1.516153    0.088659
C       0.108820    0.056150    0.038022
O      -0.730546   -0.848532    0.757550
C       0.681820   -0.911674    0.992376
C       1.256899   -1.798246   -0.112657
C       0.687019   -0.748179   -1.163215
O      -0.317532   -1.181400   -2.051034
C       1.755300   -0.036511   -1.857256
C       2.628808    0.530343   -2.459681
H       0.647155    2.100571   -0.287695
H      -1.072035    1.742724   -0.529625
H      -0.414421    1.820608    1.115559
H       1.029835   -0.766161    2.008179
H       2.345390   -1.869457   -0.132101
H       0.798755   -2.786827   -0.182083
H       0.110435   -1.515736   -2.846506
H       3.398839    1.036926   -2.987850
