8

C       0.106538    1.435120    0.033361
O       0.426866    0.047169    0.093099
C       0.507149   -0.636527   -1.063183
O       0.769270   -1.799550   -1.110105
H       0.923493    2.003851    0.484657
H      -0.037578    1.769272   -1.000574
H      -0.812696    1.608019    0.598733
H       0.304585   -0.002319   -1.949656
