19

C      -0.033911    1.560002   -0.102474
C      -0.037882    0.033450   -0.009331
C       0.732573   -0.539878    1.204014
C       0.722547   -2.079147    1.208539
O       2.109450   -0.037932    1.232538
C       2.957220   -0.348403    0.236110
O       4.088479    0.039598    0.221833
C       0.144937   -0.052444    2.454923
C      -0.376858    0.313391    3.472504
H       0.981770    1.953201   -0.196414
H      -0.605675    1.886186   -0.975731
H      -0.484901    2.007166    0.787397
H      -1.066046   -0.337821    0.064020
H       0.381487   -0.404937   -0.922245
H       1.101826   -2.482920    0.266263
H       1.335378   -2.454475    2.030966
H      -0.300209   -2.438207    1.345844
H       2.519674   -0.982430   -0.554046
H      -0.825409    0.645610    4.376525
