22

C      -0.064520    1.470085    0.098637
C       0.041431   -0.013402   -0.078240
C      -0.632970   -0.866942   -1.142994
C      -0.398756   -2.017719   -0.152636
N      -0.338462   -0.979247    1.017162
C       1.098856   -0.843535    0.586810
C       1.136299   -2.240503   -0.027062
C       1.434476   -3.301272    1.038796
C       1.974737   -2.480792   -1.280852
H       0.520470    1.999108   -0.662436
H      -1.105561    1.800629    0.017809
H       0.308550    1.770571    1.082631
H      -1.696319   -0.615303   -1.204033
H      -0.216058   -0.929138   -2.152667
H      -1.086650   -2.859836   -0.081566
H       1.835084   -0.395235    1.248090
H       0.823657   -3.144920    1.931905
H       1.228472   -4.305530    0.651229
H       2.488633   -3.271968    1.336797
H       3.041005   -2.502941   -1.027996
H       1.728298   -3.446472   -1.737669
H       1.833614   -1.702922   -2.035205
