20

C      -0.366005    1.420470   -0.164065
C       0.151770   -0.018813   -0.001822
C       0.908971   -0.507686   -1.188383
N       2.154093   -0.850432   -1.268671
C       2.344037   -1.217879   -2.603423
C       3.673811   -1.682605   -3.094694
C       1.170600   -1.069662   -3.269939
C       0.713538   -1.282191   -4.666050
O       0.237740   -0.611836   -2.365941
H       0.463259    2.120362   -0.303316
H      -1.027494    1.501613   -1.030934
H      -0.926692    1.727690    0.723388
H       0.823880   -0.093579    0.856294
H      -0.694895   -0.690833    0.186368
H       4.003056   -2.573146   -2.548367
H       3.644763   -1.927884   -4.159508
H       4.437666   -0.912266   -2.942817
H      -0.097943   -2.017317   -4.717952
H       0.343174   -0.353636   -5.115892
H       1.540663   -1.647832   -5.278483
