18

C       0.051464    1.482069   -0.299591
C       0.022404    0.000738    0.103795
C      -1.371594   -0.518495    0.264245
C      -2.401395   -0.196087    1.383089
C      -2.942895   -1.609191    1.149661
N      -3.760554   -2.391833    1.714665
O      -4.434117   -1.747561    2.765852
C      -1.961291   -1.866251    0.051144
O      -2.144812   -0.796061   -0.906648
H       1.080805    1.830429   -0.422277
H      -0.476355    1.634893   -1.245383
H      -0.426786    2.110223    0.459034
H       0.530154   -0.604458   -0.655084
H       0.564079   -0.142514    1.046768
H      -1.971803   -0.087698    2.383659
H      -3.076408    0.636954    1.176863
H      -5.006208   -2.447244    3.099494
H      -1.539959   -2.796216   -0.308877
