18

C      -0.227153    1.602006   -0.126318
C       0.036625    0.102862   -0.028804
C      -1.243147   -0.702385    0.171969
C       0.928043   -0.440282   -1.188247
N       2.167781   -0.906342   -0.561536
C       2.032586   -0.685213    0.686825
O       0.885724   -0.119545    1.145329
C       3.007565   -0.986297    1.682595
C       3.822085   -1.235808    2.529457
H       0.713034    2.151630   -0.227603
H      -0.848451    1.819648   -1.001228
H      -0.746705    1.966093    0.764609
H      -1.905987   -0.578703   -0.690697
H      -1.014470   -1.766556    0.279428
H      -1.776952   -0.370919    1.067194
H       0.449392   -1.268721   -1.723437
H       1.156441    0.333589   -1.930417
H       4.548034   -1.459910    3.271981
