15

C      -0.049647    1.374239    0.071736
O       0.004466   -0.033687    0.004168
C       0.655567   -0.503698   -1.148229
C       0.634752   -2.038007   -1.075116
C       1.280944   -2.659988   -2.215608
C       1.823538   -3.157696   -3.173578
C       2.435843   -3.723349   -4.254555
N       2.957695   -4.202563   -5.175318
H       0.957025    1.819156    0.091590
H      -0.599488    1.801262   -0.780945
H      -0.570636    1.633891    0.995739
H       0.145482   -0.162839   -2.063473
H       1.695404   -0.142460   -1.196111
H       1.128279   -2.353551   -0.148155
H      -0.406980   -2.373540   -1.007079
