23

C       0.020878    1.537240   -0.019769
C       0.074112    0.033607    0.004290
C       0.062112   -0.710138   -1.106377
C       0.035603   -2.219694   -1.164732
C      -1.357090   -2.836989   -0.902306
C      -1.892711   -2.754871    0.539881
C      -2.252592   -1.354294    1.079900
O      -1.279952   -0.723015    1.901792
C       0.038526   -0.610294    1.369266
H       0.907346    1.973503    0.458987
H      -0.042462    1.928096   -1.038994
H      -0.847044    1.900495    0.544344
H       0.022307   -0.197751   -2.067077
H       0.368638   -2.538875   -2.158321
H       0.751407   -2.652170   -0.454680
H      -2.086110   -2.367115   -1.575846
H      -1.318343   -3.895636   -1.188311
H      -2.809075   -3.356899    0.572995
H      -1.198786   -3.237216    1.240069
H      -2.536705   -0.702696    0.239888
H      -3.123479   -1.432510    1.738006
H       0.523313   -1.595267    1.345650
H       0.577006    0.000387    2.101672
