20

C      -0.043996    1.639738    0.146063
C       0.035020    0.117797    0.061718
C      -1.364738   -0.495911   -0.163420
C      -1.976140   -0.088585   -1.427727
N      -2.440063    0.239444   -2.434300
C       1.088345   -0.507878   -0.926762
C       1.703491   -1.288947    0.240806
C       2.197351   -0.332902    1.286798
C       0.726423   -0.632885    1.219707
H       0.941790    2.079659    0.317357
H      -0.442942    2.065456   -0.780625
H      -0.697042    1.953837    0.968765
H      -1.296629   -1.589703   -0.148602
H      -2.034772   -0.208494    0.656340
H       0.626172   -1.132396   -1.694515
H       1.757049    0.203646   -1.421205
H       2.036469   -2.318504    0.201308
H       2.712136   -0.784318    2.128976
H       2.588937    0.640368    1.001925
H       0.199979   -1.070806    2.061353
