23

C      -0.151470    1.527466   -0.069179
C       0.116760    0.017736   -0.064610
C       0.749860   -0.522164    1.224880
C       2.135331    0.077967    1.478603
C      -0.137146   -0.475293    2.530307
C       0.005576   -1.997969    2.650418
O       0.274822   -2.661841    3.836291
C      -0.569970   -2.685438    1.447825
C       0.809003   -2.060304    1.364848
H       0.772966    2.109720   -0.009367
H      -0.667564    1.826613   -0.986912
H      -0.783420    1.821830    0.776012
H      -0.827877   -0.506765   -0.248879
H       0.771839   -0.239260   -0.908314
H       2.085269    1.159637    1.638171
H       2.593875   -0.368713    2.366787
H       2.803175   -0.107714    0.628673
H       0.356219    0.057717    3.346255
H      -1.159639   -0.095822    2.423219
H      -0.564003   -2.905026    4.243324
H      -0.551762   -3.769437    1.507852
H      -1.421201   -2.278331    0.906809
H       1.679421   -2.663632    1.131366
