20

C       1.033954    1.093063    0.870989
C       0.179880    0.304025   -0.105167
O       1.035053   -0.495240   -0.905196
C       0.353024   -1.266369   -1.855869
C       1.406333   -1.963836   -2.722791
O       0.722499   -2.831684   -3.590229
C       1.564963   -3.697017   -4.333395
C       2.221643   -0.975163   -3.466859
N       2.854706   -0.230795   -4.083208
H       1.603779    0.418406    1.516013
H       1.739422    1.731389    0.332207
H       0.402080    1.725546    1.501314
H      -0.538076   -0.336794    0.433072
H      -0.406607    0.981320   -0.746919
H      -0.268644   -2.045810   -1.388932
H      -0.297727   -0.650757   -2.495263
H       2.089479   -2.517159   -2.058558
H       2.230290   -3.137125   -5.003373
H       2.175699   -4.325663   -3.669025
H       0.909458   -4.335107   -4.928514
