19

C      -0.013097    1.489309   -0.161358
O       1.332403    1.527881    0.370369
C       1.394408    0.090173    0.479402
C      -0.019859   -0.032773   -0.078616
C      -1.093411   -0.978548    0.361106
C      -2.547987   -0.513916    0.268960
C      -2.741632   -0.241457   -1.208585
C      -1.663294   -0.564238   -1.927872
C      -0.545056   -1.045190   -1.065423
H      -0.722865    2.013543    0.492708
H      -0.073073    1.917031   -1.169636
H       2.195683   -0.336452   -0.139456
H       1.532374   -0.238032    1.518995
H      -0.826497   -1.731497    1.095095
H      -3.240177   -1.286666    0.628950
H      -2.741353    0.377267    0.881325
H      -3.656263    0.183501   -1.606035
H      -1.573169   -0.464657   -3.003459
H       0.118700   -1.835308   -1.403010
