25

C      -0.138889    1.575849    0.002214
C      -0.013494    0.045681   -0.003940
C       0.588999   -0.431033   -1.337073
C       0.610336   -1.958364   -1.547823
C       1.658486   -2.697886   -0.751877
C       1.757434   -2.708178    0.579771
C       2.844076   -3.475286    1.286265
C       0.789325   -1.951951    1.470376
C       0.751655   -0.426702    1.245080
H       0.848084    2.050447   -0.056292
H      -0.727183    1.930589   -0.850670
H      -0.623674    1.933451    0.916922
H      -1.030221   -0.373028    0.061256
H       0.004101    0.019806   -2.149298
H       1.609968   -0.038931   -1.437838
H      -0.390586   -2.355625   -1.318919
H       0.770909   -2.159347   -2.612146
H       2.391163   -3.261934   -1.325987
H       3.502530   -3.992517    0.582990
H       3.461050   -2.810404    1.905646
H       2.419415   -4.223300    1.969147
H      -0.227166   -2.351847    1.339335
H       1.049807   -2.141338    2.517377
H       1.779612   -0.040799    1.212181
H       0.278515    0.035470    2.120981
