18

C      -0.146423    1.531383   -0.061474
C       0.110240    0.029574    0.022141
C       0.880820   -0.547181   -1.202725
N       1.919481   -1.352313   -0.546428
C       1.875278   -1.054914    0.814081
N       0.928401   -0.306204    1.211757
C       2.907213   -2.002161   -1.271147
N       3.813746   -2.724051   -0.508857
O       2.977013   -1.909285   -2.480121
H       0.797132    2.078202   -0.157661
H      -0.772344    1.770559   -0.927522
H      -0.653267    1.881389    0.841360
H      -0.852501   -0.485040    0.137687
H       0.266998   -1.168498   -1.857461
H       1.343638    0.234048   -1.815488
H       2.644192   -1.450930    1.468811
H       3.475905   -3.185039    0.322282
H       4.410301   -3.301363   -1.082805
