25

C       0.005684    1.580813   -0.044256
C       0.068016    0.069062    0.009664
C       1.317475   -0.736712   -0.268361
C       2.661320   -0.025041   -0.146148
C       2.952197    0.170662    1.374950
C       3.545344    1.544861    1.699666
C       1.643103   -0.238729    2.154628
C       1.033829    0.808670    3.099655
C       0.676697   -0.787794    1.102886
H       0.919103    2.063416    0.309322
H      -0.156523    1.916066   -1.075630
H      -0.824478    1.964671    0.558752
H      -0.830786   -0.385360   -0.403850
H       1.246426   -1.573857   -0.954862
H       3.449618   -0.621291   -0.615820
H       2.659803    0.939258   -0.669268
H       3.713118   -0.567683    1.652132
H       2.862805    2.362619    1.445064
H       3.796488    1.641234    2.760779
H       4.467309    1.702145    1.129472
H       1.909223   -1.093118    2.789444
H       0.743664    1.727693    2.585878
H       0.134437    0.402173    3.574409
H       1.731132    1.078927    3.899373
H       0.093041   -1.654696    1.398602
