16

C       0.262665    1.484565    0.084071
C      -0.018435    0.018270   -0.033012
C       0.073151   -0.659238   -1.183022
C      -0.262488   -2.082303   -1.297965
O      -0.340903   -2.690470   -2.327912
O      -0.501975   -2.771791   -0.116895
C      -0.351414   -2.196071    1.127865
N      -0.175953   -2.904739    2.154998
C      -0.466251   -0.696270    1.211459
H       1.079808    1.664109    0.793369
H       0.532303    1.924421   -0.878247
H      -0.612924    2.015703    0.477864
H       0.354694   -0.186852   -2.116650
H      -0.152228   -3.895442    1.905279
H       0.090850   -0.366266    2.092177
H      -1.517048   -0.434393    1.409141
