19

O       0.783385   -0.229447    0.487494
C       0.401203    0.908161    0.418332
C       1.232544    2.113222   -0.005468
C       1.462593    3.096892    1.176600
C       2.869199    2.734119    1.662962
C       3.029647    1.478318    2.573836
C       3.741796    0.722702    1.413566
C       3.504824    1.942335    0.480721
O       2.501302    1.778246   -0.515987
H      -0.653540    1.182165    0.665743
H       0.657879    2.599099   -0.808269
H       1.434699    4.124337    0.804198
H       0.700430    3.005736    1.956717
H       3.421173    3.611083    2.004052
H       3.641403    1.645635    3.462922
H       2.084982    1.031122    2.894420
H       4.799146    0.517369    1.597978
H       3.249049   -0.185426    1.067367
H       4.388175    2.351174   -0.015879
