22

C       0.000043    1.612545   -0.316116
C      -0.007975    0.124226   -0.165951
C      -0.334642   -0.782006   -1.088795
C      -0.173241   -2.201251   -0.600144
C      -0.003871   -2.017741    0.928444
C       0.425007   -0.545129    1.123424
N      -1.330796   -3.043153   -0.915348
C      -1.313083   -3.696604   -2.220543
C      -1.076281   -4.480073   -0.978089
H       1.004033    2.023143   -0.146667
H      -0.329546    1.922262   -1.311535
H      -0.656369    2.086374    0.424976
H      -0.648233   -0.555498   -2.102586
H       0.742863   -2.645241   -1.041776
H      -0.983722   -2.184736    1.385412
H       0.695914   -2.732580    1.368822
H       1.512275   -0.448124    1.257294
H      -0.029948   -0.084462    2.008941
H      -2.267430   -3.750390   -2.736596
H      -0.454298   -3.524435   -2.868249
H      -0.059287   -4.826081   -0.797369
H      -1.853724   -5.118094   -0.568002
