21

C      -0.083121    1.503896    0.003176
C      -0.059315   -0.000137    0.046276
C       0.845137   -0.830644   -0.968135
C       1.918864   -0.978098    0.139338
C       0.719535   -0.876585    1.096197
C      -0.311026   -1.958266    0.658998
C      -0.009667   -2.106346   -0.891198
C      -1.460890   -1.656517   -1.197151
C      -1.335678   -0.898286    0.134810
H       0.929795    1.922857   -0.009543
H      -0.599409    1.864771   -0.894868
H      -0.602763    1.920554    0.873546
H       1.092322   -0.449247   -1.960622
H       2.527707   -1.888866    0.144701
H       2.572580   -0.103293    0.206313
H       0.807846   -0.628796    2.154555
H      -0.575292   -2.837125    1.244334
H       0.410314   -3.018114   -1.318195
H      -1.641105   -1.091176   -2.118636
H      -2.174224   -2.483773   -1.129565
H      -2.188828   -0.530975    0.706566
