17

O       0.196544    1.322113   -0.213535
C       0.077265   -0.050632    0.006056
C       0.604349   -0.592969    1.353178
N       0.024017   -1.930867    1.479216
C      -1.339576   -1.831302    0.944494
C      -1.405749   -0.555701    0.029924
O      -2.147175    0.499460    0.640053
C      -1.939272   -0.841453   -1.305122
N      -2.389311   -1.084859   -2.342275
H      -0.556052    1.740431    0.225472
H       0.603431   -0.560038   -0.809124
H       1.694444   -0.626904    1.396254
H       0.248822    0.049582    2.168772
H       0.560317   -2.580232    0.914002
H      -1.624097   -2.744938    0.419095
H      -2.056170   -1.666287    1.757680
H      -3.088793    0.349486    0.506911
