17

C       0.201413    1.309397    0.204490
O      -0.305856    0.096934   -0.318828
C       0.487614   -0.454603   -1.310271
C       1.714997   -1.328720   -0.892466
O       0.770511   -2.354794   -0.388571
C       0.106424   -1.918532   -1.663633
C      -1.217225   -2.499462   -2.024773
C       1.544012   -2.081284   -2.234513
O       2.154413   -2.640982   -3.085406
H       1.163467    1.161823    0.714881
H       0.335868    2.064258   -0.584914
H      -0.530582    1.676099    0.926635
H       0.651694    0.236026   -2.152782
H       2.587769   -1.102218   -0.285425
H      -1.979546   -2.185133   -1.306536
H      -1.512877   -2.157029   -3.021165
H      -1.164297   -3.591364   -2.036185
