20

C      -0.002064    1.557592    0.016061
C       0.046908    0.017482    0.004984
C       0.683454   -0.500073   -1.299406
C       0.749729   -0.525302    1.220312
C       0.250463   -1.303057    2.178133
C       1.296845   -1.612741    3.207618
O       2.469651   -0.937255    2.760084
C       2.201824   -0.248916    1.543325
H       1.002665    1.989493   -0.046160
H      -0.574497    1.928752   -0.840204
H      -0.473055    1.932012    0.929793
H      -0.986655   -0.349410    0.040256
H       1.713348   -0.143712   -1.409899
H       0.701544   -1.593683   -1.324205
H       0.117391   -0.147900   -2.167838
H      -0.764823   -1.677013    2.235243
H       1.021132   -1.255888    4.213461
H       1.498677   -2.692806    3.295901
H       2.882927   -0.609559    0.755929
H       2.405617    0.826082    1.673043
