23

C      -0.063003    1.502773   -0.064266
C      -0.029136   -0.013443    0.017892
C      -1.223072   -0.672202   -0.650662
C       1.327928   -0.694417   -0.089440
C       0.607525   -0.641877    1.241989
O       1.089059    0.283147    2.194459
C       0.066183   -1.907124    1.883551
C       1.137368   -2.698242    2.642031
O       0.637554   -3.904905    3.195765
H       0.772272    1.952977    0.472271
H      -0.027211    1.827258   -1.110626
H      -0.988717    1.895117    0.372799
H      -1.310967   -0.322752   -1.685892
H      -1.145814   -1.761396   -0.682477
H      -2.157264   -0.415314   -0.137424
H       1.389529   -1.646871   -0.607491
H       2.200676   -0.059518   -0.208169
H       1.988636    0.031564    2.426127
H      -0.735049   -1.629021    2.582779
H      -0.373868   -2.570086    1.134255
H       1.936537   -2.997354    1.954465
H       1.592486   -2.065580    3.420146
H      -0.041311   -3.672572    3.837494
