18

C      -0.236559    1.550568    0.040406
C       0.115833    0.080501   -0.008686
O       1.371558   -0.157578   -0.742449
C       1.967292   -0.787646    0.330401
O       3.054613   -1.260624    0.389585
C       0.759659   -0.584510    1.215814
C       0.673472   -0.233139    2.658784
N       0.245718   -1.537461    2.176154
C      -1.187157   -1.806360    2.150099
H       0.566840    2.128437    0.505690
H      -0.403437    1.936752   -0.969451
H      -1.154971    1.702245    0.617053
H      -0.680287   -0.513937   -0.467938
H       1.573226   -0.220370    3.267136
H      -0.091713    0.492320    2.935616
H      -1.803498   -0.917585    1.937284
H      -1.398496   -2.566260    1.392031
H      -1.484617   -2.203931    3.124443
