17

C       0.023945    1.544920   -0.029538
C       0.063819    0.028388    0.064761
C      -1.115558   -0.650824   -0.408975
N      -2.071927   -1.221800   -0.728014
C       1.344061   -0.805678   -0.168876
N       2.482679    0.004229    0.297851
C       1.961490   -0.090314    1.708581
C       0.699101   -0.780603    1.204680
O       0.034182   -1.676203    2.002350
H       1.020071    1.947342    0.161782
H      -0.278178    1.856676   -1.033407
H      -0.684782    1.968628    0.687730
H       1.418134   -1.535674   -0.965667
H       3.350279   -0.512522    0.200884
H       2.543194   -0.775821    2.330859
H       1.856785    0.871420    2.219679
H      -0.831739   -1.869410    1.619232
