18

O      -0.009778    1.385699   -0.276789
C       0.008720   -0.009818    0.007045
C      -1.400748   -0.491252    0.009899
C      -2.046426   -1.863618   -0.067898
N      -2.889485   -1.598199    1.101561
C      -2.535267   -0.141018    1.008822
C      -3.533819    0.608350    0.134742
O      -3.517629   -0.118204   -1.105059
C      -2.292014   -0.814100   -1.148181
H       0.883685    1.725374   -0.167534
H       0.586695   -0.567696   -0.747702
H       0.475883   -0.206813    0.985233
H      -1.605425   -2.839260   -0.247847
H      -3.878579   -1.770673    0.917763
H      -2.287813    0.331235    1.961120
H      -4.557069    0.592483    0.525952
H      -3.220728    1.652033   -0.019836
H      -1.894762   -0.954523   -2.146707
