18

C       0.336406    1.488022   -0.018538
C       0.116600    0.005174   -0.029025
C      -0.030234   -0.838463   -1.121158
N      -0.223792   -2.086275   -0.603421
N      -0.208548   -2.120724    0.738707
C      -0.001825   -0.854965    1.088557
C      -0.044211   -0.611483   -2.582693
C       0.958725    0.273743   -3.228467
N       1.032658   -1.179742   -3.435169
H       1.389100    1.749030    0.146809
H       0.029270    1.945225   -0.962434
H      -0.239171    1.963308    0.782080
H      -0.371178   -2.939783   -1.116488
H       0.052111   -0.591582    2.135715
H      -1.020736   -0.688666   -3.058411
H       0.677100    0.847796   -4.106211
H       1.702785    0.745498   -2.594322
H       1.759506   -1.560136   -2.832083
