20

C       0.453363    1.521029   -0.380626
C       0.003770    0.073730   -0.141570
C       0.690082   -0.533473    1.069494
C       0.825904   -2.056636    1.325768
C       1.908411   -2.032016    0.230574
N       2.234206   -0.749131    1.021275
C       2.001092   -1.659492    2.265988
C       1.772059   -1.017684    3.543382
C       1.608505   -0.531095    4.631114
H       1.529959    1.565102   -0.567861
H      -0.064809    1.957635   -1.239495
H       0.244046    2.148603    0.492331
H      -1.077329    0.047863    0.049291
H       0.162200   -0.515455   -1.049816
H       0.423265    0.051053    1.955064
H       0.043620   -2.800171    1.515254
H       2.702860   -2.781868    0.279727
H       1.613165   -1.853746   -0.801653
H       2.798205   -2.403593    2.357391
H       1.462453   -0.091054    5.586674
