17

C      -0.012269    1.548760   -0.019591
C       1.493622    1.833361   -0.017085
O       2.036072    1.438869    1.274650
C       1.481530    0.313495    1.798609
N       0.569582   -0.425637    1.318335
C       0.039345    0.008548    0.010730
C       1.112069   -0.309018   -1.034585
N       1.133395    0.614679   -2.186554
C       2.042249    0.848864   -1.041247
H      -0.516025    1.965101    0.854614
H      -0.472646    1.927127   -0.931417
H       1.779473    2.877158   -0.150586
H       1.930007    0.096152    2.766278
H      -0.921932   -0.477207   -0.166680
H       1.461388   -1.328714   -1.148499
H       1.665803    0.188779   -2.941105
H       3.114038    0.742277   -1.162613
