20

C      -0.181587    1.552095    0.018694
C       0.016170    0.038243    0.003822
C       0.866422   -0.503232   -1.200252
C       1.998703   -1.296825   -0.503274
C       2.895359   -0.282514    0.223194
O       2.067466    0.209380    1.295934
C       0.825180   -0.507925    1.203869
C       1.259185   -1.894755    0.713769
H       0.781063    2.065974    0.091247
H      -0.687979    1.891629   -0.890893
H      -0.789825    1.863918    0.875047
H      -0.967528   -0.447350    0.005917
H       0.272777   -1.151336   -1.851748
H       1.262763    0.308236   -1.819217
H       2.543595   -1.989757   -1.145954
H       3.798768   -0.744829    0.643894
H       3.201055    0.551674   -0.420518
H       0.326157   -0.439541    2.172145
H       0.423449   -2.544213    0.440320
H       1.913072   -2.411218    1.421226
