16

C      -0.210413    1.536287    0.079390
C       0.005709    0.036110    0.019688
C      -1.222173   -0.757219   -0.384835
N       1.311018   -0.394061   -0.471988
C       0.975549   -0.656155    0.947572
C       1.790539    0.070423    1.958619
O       1.897382   -0.283490    3.106991
H       0.723018    2.069768    0.264241
H      -0.615103    1.892560   -0.874486
H      -0.926664    1.796643    0.865613
H      -1.546424   -0.468767   -1.391582
H      -1.023523   -1.833478   -0.384251
H      -2.056606   -0.567426    0.298254
H       1.238660   -1.257945   -1.004406
H       0.705302   -1.664196    1.253692
H       2.310089    0.973337    1.571508
