17

C       0.079766    1.513834    0.026952
C      -0.010718    0.017171   -0.035632
C       0.081573   -0.665994   -1.181780
C      -0.004213   -2.124009   -1.258952
N       0.092115   -2.713148   -2.389904
N      -0.192726   -2.781207   -0.035586
C      -0.304714   -2.211805    1.217343
O      -0.466292   -2.893081    2.206253
C      -0.213718   -0.695145    1.273149
H       0.911727    1.828511    0.669632
H       0.224671    1.950837   -0.963388
H      -0.830359    1.942556    0.465179
H       0.227524   -0.173327   -2.135524
H       0.014816   -3.727942   -2.296157
H      -0.257385   -3.791075   -0.040939
H       0.594268   -0.449963    1.975526
H      -1.127075   -0.339137    1.768521
