18

C      -0.225720    1.098737   -0.313935
O       0.547687   -0.032263    0.051960
C       0.972309   -0.774023   -1.031335
C       1.457146   -2.144406   -0.780105
C       0.116305   -1.991364   -1.498101
C      -1.164413   -2.319934   -0.762988
C       0.142226   -2.188922   -2.964426
O       1.134600   -2.097387   -3.653437
H       0.342877    1.774283   -0.968432
H      -1.150305    0.806742   -0.829971
H      -0.478260    1.624233    0.609091
H       1.433957   -0.206221   -1.839171
H       2.284330   -2.504647   -1.381275
H       1.408755   -2.502931    0.242228
H      -1.165578   -1.858181    0.227019
H      -2.040058   -1.948903   -1.307945
H      -1.287239   -3.400622   -0.633091
H      -0.850298   -2.404559   -3.422274
