17

C      -0.379636    1.379773    0.034498
C      -0.050543   -0.102296    0.093900
C       1.235568   -0.589745   -0.633016
O       2.054688    0.051868    0.434773
C       0.938323   -0.575773    1.206812
C       0.900746   -0.450956    2.703410
O      -0.031002   -1.372186    3.243230
C       1.248341   -1.810089    0.320093
O       1.493463   -2.971017    0.386330
H       0.520632    1.983725    0.163163
H      -0.835944    1.634194   -0.927168
H      -1.094880    1.644593    0.819866
H      -0.932137   -0.737512   -0.041185
H       1.557915   -0.452428   -1.662892
H       1.917774   -0.594873    3.097218
H       0.565971    0.546766    3.004859
H       0.294679   -2.260414    3.058474
