19

C      -0.107474    1.515219   -0.083125
C       0.117433    0.019430    0.009143
C       1.443710   -0.676770   -0.175276
C       2.562869    0.092507    0.488078
O       3.082221   -0.698607    1.580309
C       1.867623    0.057297    1.791025
C       1.911839    1.014460    2.947787
O       3.164954    1.656820    3.035500
C       0.709863   -0.712722    1.191307
H       0.720530    2.086039    0.342469
H      -0.219158    1.821314   -1.128987
H      -1.022814    1.802574    0.445775
H      -0.693735   -0.554714   -0.437998
H       1.576497   -1.504426   -0.861246
H       3.226487    0.844998    0.080526
H       1.147841    1.789829    2.823992
H       1.668639    0.465578    3.874333
H       3.819250    0.965312    2.869164
H       0.226356   -1.568252    1.647289
