16

C      -1.348050    0.651341    0.311985
N      -0.128335   -0.100475    0.055016
C       0.870914   -0.179411    1.017265
N       0.752707    0.397259    2.144533
C       0.037278   -0.738334   -1.153486
N       1.082212   -1.455419   -1.533807
C       0.730240   -1.847174   -2.791575
N      -0.444255   -1.430813   -3.217763
N      -0.886438   -0.708757   -2.141855
H      -1.463276    1.468293   -0.409905
H      -2.227465   -0.001411    0.263431
H      -1.266195    1.067937    1.314499
H       1.714644   -0.776335    0.668855
H       1.579383    0.228035    2.712220
H       1.369591   -2.461631   -3.407816
H      -1.783978   -0.258006   -2.175621
