18

C       0.039868    1.554725   -0.015349
C      -0.009626    0.046339   -0.000742
N       0.301793   -0.688803   -1.299105
C      -0.638593   -1.793771   -0.862564
C       0.149648   -2.759598    0.033124
C       0.902785   -1.961559    1.072472
C       0.819249   -0.631398    1.077586
C      -1.360999   -0.701789   -0.048326
O      -2.502158   -0.406835    0.159233
H       1.059729    1.909713   -0.195684
H      -0.616633    1.964777   -0.788784
H      -0.294883    1.950135    0.948536
H      -0.156784   -0.176578   -2.054112
H      -1.193232   -2.295503   -1.658224
H      -0.542028   -3.463488    0.515005
H       0.838258   -3.361911   -0.573958
H       1.498575   -2.497191    1.805634
H       1.309235   -0.015480    1.824984
