16

N       0.024638    1.305147    0.164397
C      -0.030355    0.044807    0.059826
O       1.057008   -0.786368   -0.093408
C       0.619461   -2.143388   -0.173102
C      -0.883610   -2.073281   -0.068340
C      -1.234082   -0.791696    0.081261
C      -1.746227   -3.262975   -0.105350
C      -1.526670   -4.369859   -1.060389
O      -1.141204   -4.501172    0.301798
H       0.992420    1.627312    0.121716
H       0.967596   -2.577040   -1.119618
H       1.061745   -2.724146    0.644794
H      -2.224217   -0.377903    0.203566
H      -2.761932   -3.117240    0.260029
H      -2.381339   -4.969468   -1.370076
H      -0.711895   -4.312480   -1.779760
