15

C      -0.033061    1.458049    0.030137
O       1.291287    1.995693   -0.031051
C       2.040674    0.933815   -0.623240
C       3.244367    0.213458    0.015756
C       2.436740   -0.259206    1.243912
O       2.759572   -1.672931    1.073783
C       2.570360   -1.216972   -0.276363
C       1.388551   -0.224884    0.051848
O       0.031287    0.000213    0.123653
H      -0.522962    1.860971    0.920602
H      -0.603804    1.699796   -0.876504
H       2.025825    0.988904   -1.717892
H       4.310621    0.420512   -0.028213
H       2.383540    0.151006    2.249025
H       2.732525   -1.904367   -1.104859
