17

C      -0.194566    1.527553    0.014555
C       0.071078    0.025403   -0.059111
C       1.062154   -0.511504   -1.110069
O       1.234194   -1.905147   -0.659096
C       1.961598   -1.298205    0.467863
C       2.481011   -0.223048   -0.545899
O       3.538373   -0.641282   -1.351316
C       0.832153   -0.540127    1.165263
O       0.620427   -0.369958    2.333935
H       0.732998    2.106894    0.054169
H      -0.769057    1.869542   -0.851410
H      -0.766282    1.756112    0.918194
H      -0.872629   -0.521102   -0.169495
H       0.826434   -0.415247   -2.170251
H       2.607020   -1.968654    1.031239
H       2.718726    0.777600   -0.178753
H       3.313521   -1.528336   -1.662744
