20

C      -0.025801    1.658643    0.032209
C       1.137821    0.759210   -0.344173
C       2.406929    0.739728    0.491794
C       3.237044   -0.552468    0.350159
C       2.710052   -1.746381    1.150216
O       1.325437   -1.989953    0.869608
C       0.449762   -1.386890    1.727810
N      -0.313942   -0.426172    1.440575
C      -0.170590    0.166872    0.130860
H       0.054091    2.194635    0.973282
H      -0.558495    2.193890   -0.746396
H       1.327561    0.652598   -1.410509
H       3.031241    1.586857    0.181609
H       2.167891    0.915885    1.547463
H       3.290697   -0.831681   -0.709237
H       4.269018   -0.370612    0.677124
H       3.250847   -2.659351    0.882429
H       2.843241   -1.578776    2.228710
H       0.423332   -1.827655    2.728417
H      -0.785399   -0.319449   -0.622065
