21

O      -0.106872    1.263672   -0.553947
C      -0.076161   -0.005679    0.087298
C      -1.461500   -0.597389    0.033926
C      -1.839849   -1.299489   -1.240397
C      -1.550287   -2.098839    0.040373
C      -3.009794   -2.610080    0.062339
C      -4.101855   -1.793891    0.819432
C      -4.393978   -0.981214   -0.486906
C      -3.301166   -1.803213   -1.236320
H       0.753020    1.677848   -0.434816
H       0.635779   -0.685592   -0.409636
H       0.244066    0.091362    1.137046
H      -2.195362   -0.000388    0.568163
H      -1.230142   -1.179806   -2.128749
H      -0.685940   -2.705392    0.289580
H      -3.098102   -3.696753    0.078723
H      -4.946485   -2.407520    1.142464
H      -3.755378   -1.216757    1.680864
H      -5.400088   -1.146050   -0.880184
H      -4.223857    0.097107   -0.432987
H      -3.600061   -2.310256   -2.154121
