16

C      -0.088115    1.511814    0.006707
N       1.437928    1.249302   -0.014070
C       1.232165    0.037931    0.918940
C       1.886983   -0.977752   -0.018802
O       1.196833   -2.233796    0.047850
C      -0.118416   -2.186432   -0.463384
O      -0.896388   -1.076657    0.013177
C      -0.019283   -0.005631    0.004852
C       1.214409    0.043050   -0.949982
H      -0.427356    2.014688    0.916503
H      -0.453665    2.021681   -0.889320
H       1.270281    0.136400    2.003190
H       2.960071   -1.172548   -0.026389
H      -0.086241   -2.124923   -1.562305
H      -0.622001   -3.099315   -0.144021
H       1.242435    0.171984   -2.032008
