17

O       0.025161   -0.039873    0.002987
C      -0.013769    1.162905    0.010391
C      -1.284675    2.012829    0.031909
C      -0.837998    3.484981    0.033439
C       0.057929    3.714980    1.254973
O       1.208006    2.855873    1.175498
C       1.219375    2.077963   -0.001248
O       1.176974    2.868320   -1.168941
C       0.024884    3.727479   -1.209270
H      -1.897396    1.767587   -0.842827
H      -1.873532    1.758554    0.920357
H      -1.689185    4.171056    0.048327
H       0.408141    4.754176    1.293963
H      -0.476086    3.498208    2.188897
H       2.150805    1.512970   -0.016581
H      -0.533872    3.519597   -2.130668
H       0.373676    4.767176   -1.247411
