19

O      -0.096975    1.403168   -0.250305
C       0.003743    0.015484    0.034103
C      -1.392206   -0.586470   -0.047542
C      -1.414377   -2.090418    0.250015
C      -2.803643   -2.687897    0.172504
C      -3.366567   -3.142689   -1.151280
C      -2.995342   -4.157955   -0.096438
H       0.784519    1.784287   -0.203457
H       0.669647   -0.490889   -0.684731
H       0.424779   -0.155259    1.039178
H      -2.041148   -0.053955    0.658812
H      -1.799135   -0.396110   -1.047592
H      -0.758838   -2.616316   -0.458007
H      -0.992111   -2.273432    1.248224
H      -3.519253   -2.236815    0.856343
H      -4.417749   -2.973256   -1.356611
H      -2.727392   -3.066152   -2.025378
H      -2.108800   -4.761110   -0.264576
H      -3.793644   -4.680025    0.419602
