16

N       0.067598   -1.127223    0.088832
C      -0.009124    0.027835    0.033787
C      -0.057925    1.440341   -0.051495
C      -1.143867    2.236077   -0.040056
C      -0.613368    3.659701    0.001727
C       0.645158    3.538006   -0.869467
C       1.169790    2.350880   -0.020706
C       1.127397    3.029171    1.380358
O      -0.050014    3.847194    1.330513
H      -2.177349    1.931764    0.053775
H      -1.317128    4.467464   -0.185341
H       0.442268    3.264119   -1.905485
H       1.276594    4.428639   -0.821507
H       2.120826    1.895838   -0.288937
H       1.050842    2.306688    2.199660
H       2.007433    3.662905    1.542366
