17

C       0.205233    1.602143   -0.072189
C       0.094141    0.095865   -0.019735
C       1.294203   -0.782584   -0.181384
C       0.616613   -0.648226    1.196989
O       1.234320    0.127568    2.171861
C      -0.148187   -1.842630    1.635753
O      -0.894351   -2.484529    0.923015
C       0.087581   -2.403201    3.046228
O       1.039161   -2.137019    3.738988
H       1.125720    1.946747    0.402981
H       0.200564    1.945037   -1.112009
H      -0.635871    2.075974    0.443404
H      -0.830883   -0.325036   -0.404145
H       1.187771   -1.728808   -0.699608
H       2.267946   -0.307975   -0.237927
H       1.685890   -0.470933    2.782837
H      -0.672161   -3.158464    3.331669
