16

O       0.005607   -0.015335   -0.097604
C      -0.038446    1.186255    0.008276
C      -1.295832    2.072619    0.081415
C      -0.776029    3.497027    0.040301
C       0.725228    3.416374    0.038205
N       1.054417    2.030561    0.072882
C      -0.001724    3.958117   -1.199789
C      -0.040073    3.221212   -2.424702
C      -0.075827    2.588352   -3.447344
H      -1.952198    1.814320   -0.753722
H      -1.838014    1.863997    1.008422
H      -1.284272    4.265155    0.609234
H       1.351997    4.087302    0.614457
H       1.959618    1.678723   -0.198436
H       0.049725    5.038207   -1.309032
H      -0.103735    2.031393   -4.351044
