20

C      -0.127139    2.074016   -0.865847
C      -0.058035    0.630872   -0.340174
C      -1.447325    0.012419   -0.227301
C      -1.746867   -1.017792    0.797969
N      -2.317323    0.338249    0.908756
C       0.769032   -0.242641   -1.274378
O       0.562562   -0.288515   -2.469742
C       1.871434   -1.101860   -0.678549
O       2.498824   -1.881824   -1.647606
H       0.863432    2.538434   -0.883280
H      -0.522876    2.080401   -1.884300
H      -0.780126    2.680546   -0.232365
H       0.405823    0.616084    0.655745
H      -1.972735   -0.039086   -1.178433
H      -2.466975   -1.803784    0.591270
H      -0.951952   -1.303380    1.483326
H      -1.800528    0.873261    1.603822
H       2.585969   -0.427289   -0.173923
H       1.427783   -1.723862    0.117821
H       2.058729   -1.647426   -2.481127
