21

C       0.043996    1.494792    0.072777
C      -0.002829   -0.004753    0.007467
C      -1.284998   -0.837552   -0.108300
C      -0.542727   -2.024755    0.583687
C       0.613932   -1.044163    0.935937
C       1.185215   -0.838200   -0.449238
C       0.938167   -2.060788   -1.332636
C       0.054796   -2.987361   -0.449843
O       0.806911   -4.021616    0.170427
H       1.042440    1.850909    0.348318
H      -0.210861    1.943433   -0.895330
H      -0.664889    1.883153    0.813518
H      -2.073276   -0.433503    0.533162
H      -1.703111   -1.013861   -1.107439
H      -1.071964   -2.529119    1.391302
H       1.142738   -0.920982    1.872737
H       2.116697   -0.290170   -0.543947
H       0.445128   -1.800704   -2.275534
H       1.867004   -2.580776   -1.584938
H      -0.716490   -3.502906   -1.030289
H       1.473467   -3.596891    0.723095
