19

C       0.250751    1.631158   -0.175274
C      -0.061799    0.143954    0.068116
C       0.564801   -0.387956    1.313073
C       0.063022   -0.843015    2.494774
C      -1.352094   -0.995177    2.951125
C       1.243544   -1.184740    3.232349
N       1.276842   -1.776681    4.486597
N       2.345515   -0.944798    2.559492
O       1.910632   -0.444082    1.323635
H       1.329586    1.791610   -0.244529
H      -0.209118    1.972926   -1.107063
H      -0.130706    2.250283    0.642273
H      -1.143720   -0.009144    0.129591
H       0.292739   -0.446655   -0.785371
H      -1.552335   -2.018699    3.288592
H      -1.589780   -0.326817    3.788965
H      -2.057424   -0.766644    2.147886
H       0.593326   -1.406926    5.132805
H       2.204242   -1.773287    4.891411
