18

O       0.088913    1.355114   -0.062292
C       0.020397   -0.039444   -0.030578
C      -0.415393   -0.773436    1.224945
C      -1.307220   -0.724894    0.023132
C      -2.680537   -0.054470   -0.103296
O      -2.760007    1.279562   -0.593550
C      -3.050657   -1.211090   -1.022511
C      -2.045475   -1.405249   -2.094593
N      -1.726392   -1.925983   -0.755612
H      -0.814947    1.691870   -0.138010
H       0.809210   -0.505975   -0.616484
H       0.066387   -1.720025    1.447394
H      -0.699517   -0.178466    2.088036
H      -3.241013   -0.063207    0.834328
H      -2.612059    1.252631   -1.545966
H      -3.994473   -1.745079   -1.013204
H      -2.257086   -2.182802   -2.822096
H      -1.460432   -0.572509   -2.480704
