16

O      -0.104808   -0.017840    0.137986
C      -0.077530    1.169422    0.064483
C      -1.003201    2.392492    0.011251
C      -0.005439    3.007269    1.053887
C       0.942707    2.327223    0.004564
C       2.456122    2.285871    0.018095
C       3.007073    1.747426   -1.225589
N       3.427040    1.336602   -2.220146
C      -0.015876    2.920274   -1.085945
H      -2.087941    2.449863    0.016428
H       0.031168    4.099494    1.047000
H      -0.015541    2.603974    2.068271
H       2.865982    3.291294    0.170609
H       2.803180    1.669000    0.855351
H      -0.028456    2.433509   -2.061951
H       0.018587    4.009249   -1.169897
