19

C       0.185331    1.599418    0.215310
O      -0.165805    0.250549   -0.029893
C       0.624545   -0.357611   -1.019280
C       2.006331   -0.721348   -0.454782
O       2.968428   -0.952756   -1.137047
C      -0.001130   -1.640453   -1.554104
O      -0.610864   -2.536913   -0.631940
C      -1.432260   -1.969627   -1.666534
C      -2.592866   -1.099225   -1.261345
H       1.228940    1.702273    0.547384
H       0.046528    2.220189   -0.682285
H      -0.472096    1.962102    1.007844
H       0.785199    0.310541   -1.882089
H       2.026122   -0.784758    0.656412
H       0.679249   -2.115270   -2.265471
H      -1.671720   -2.691348   -2.452186
H      -2.317620   -0.429534   -0.449592
H      -2.932009   -0.505752   -2.117941
H      -3.431079   -1.728350   -0.943454
