14

C      -0.014148    1.521675    0.047164
C      -0.003566    0.027189   -0.049151
C      -0.041310   -0.678403   -1.216118
N      -0.028615   -2.046624   -1.246857
C       0.021048   -2.701512   -0.127575
C       0.065890   -2.084213    1.200359
O       0.112585   -2.658971    2.272374
N       0.048425   -0.684585    1.117574
H       0.889166    1.891932    0.545804
H      -0.062412    1.967308   -0.947574
H      -0.877050    1.874520    0.623832
H      -0.083229   -0.165731   -2.169109
H       0.031108   -3.788630   -0.150304
H       0.077729   -0.205047    2.008674
