18

C      -0.010343    1.560465   -0.019829
C      -0.003467    0.047440    0.008354
C       1.284835   -0.712534   -0.177157
C       0.619130   -0.680982    1.170066
N       1.244199   -0.051607    2.373390
C       0.133476    0.147844    3.305032
C       0.721269   -1.221360    3.211374
C       0.200004   -1.892387    1.963360
O      -0.199286   -2.988881    1.690419
H       0.879621    1.965919    0.469967
H      -0.027288    1.927216   -1.051396
H      -0.889197    1.965491    0.492772
H      -0.893103   -0.430321   -0.395137
H       1.271958   -1.658392   -0.708187
H       2.200265   -0.136795   -0.266786
H       0.395967    0.724326    4.187342
H      -0.861803    0.335952    2.910037
H       1.293249   -1.672768    4.013176
