15

O       0.250222    1.171806   -0.653083
C      -0.124736    0.482926    0.528290
C      -1.356549   -0.294287    0.388249
C      -2.354241   -0.950961    0.229908
C      -3.567519   -1.714909    0.055913
C      -4.468870   -1.383721   -1.159795
C      -4.137984   -2.811938   -1.588821
O      -4.406480   -3.549426   -2.479113
O      -3.331956   -3.064723   -0.505829
H       0.340879    0.519407   -1.355739
H       0.678115   -0.181309    0.885233
H      -0.259694    1.253570    1.295183
H      -4.110938   -1.818257    0.998780
H      -5.522152   -1.204745   -0.941089
H      -4.087087   -0.611903   -1.828213
