16

C       0.082407    1.088297   -1.041786
C      -0.035316    0.101161    0.090797
O       0.871540   -0.135664    0.860713
C      -1.373923   -0.610245    0.276588
O      -1.202624   -2.055202    0.208105
C      -1.417266   -2.215880    1.570454
N      -1.299026   -3.220416    2.302832
C      -1.801994   -0.754055    1.789604
O      -1.182143   -0.010127    2.774836
H       1.069999    1.549947   -1.042411
H      -0.096159    0.582019   -1.997827
H      -0.690933    1.860161   -0.946153
H      -2.139252   -0.278785   -0.428933
H      -0.976949   -4.038734    1.783561
H      -2.881209   -0.627214    1.908019
H      -0.228894   -0.152134    2.684060
