14

O      -0.189676    1.363832    0.059931
C       0.019771   -0.031118   -0.054689
C       0.732853   -0.403885   -1.272319
C       1.362355   -0.676029   -2.258597
C       0.768199   -0.556542    1.217762
C       0.095750    0.041433    2.470235
O       0.682704    0.712677    3.267990
C       0.733714   -2.013499    1.289011
N       0.664441   -3.164900    1.362378
H       0.636345    1.815639   -0.149439
H      -0.982264   -0.474919   -0.061505
H       1.899530   -0.929969   -3.139850
H       1.806206   -0.210452    1.202727
H      -0.981627   -0.205927    2.568792
