17

O      -0.433048    1.200834    0.509966
C       0.183318    0.019344    0.032929
C       0.826567   -0.801386    1.183270
C      -0.277682   -1.737114    1.629445
O      -1.556663   -1.111897    1.759879
C      -1.279114   -1.835088    0.535027
C      -0.841630   -0.951565   -0.612238
C      -2.086110   -3.070816    0.349617
O      -2.284232   -3.586810   -0.721078
H      -1.105863    0.918134    1.142716
H       0.931372    0.351178   -0.690223
H       1.676563   -1.397105    0.829888
H       1.180058   -0.141900    1.980537
H      -0.092463   -2.550440    2.327135
H      -1.665907   -0.398768   -1.069275
H      -0.388035   -1.581146   -1.384878
H      -2.490444   -3.485147    1.299060
