20

C      -0.103323    1.512724    0.000429
C       0.084915   -0.002923    0.029974
C       1.079241   -0.629134   -0.980828
C       2.423278   -0.046963   -0.503193
N       2.252917   -0.871052    0.739802
C       1.497545   -1.892917   -0.131905
C       0.547662   -2.128718    1.052725
O       1.088268   -2.982556    2.028362
C       0.806609   -0.615937    1.256129
H       0.815290    2.063579    0.217575
H      -0.467350    1.841962   -0.979278
H      -0.845450    1.816259    0.746265
H      -0.902828   -0.465246   -0.082763
H       0.783998   -0.675384   -2.030672
H       3.283885   -0.438826   -1.053576
H       2.540886    1.031019   -0.369384
H       2.077253   -2.689239   -0.602309
H      -0.481232   -2.449754    0.876853
H       1.994302   -2.680949    2.177986
H       0.715570   -0.134856    2.230019
