16

C      -0.018916    1.463443    0.028172
C      -0.000338   -0.029395   -0.017360
C      -0.037827   -0.815700   -1.120052
C       0.002150   -2.189064   -0.658553
C       0.063497   -2.274535    0.702253
C       0.067929   -0.880752    1.255329
C       0.093283   -3.665035    0.930392
N       0.052835   -4.350646   -0.197921
O      -0.006370   -3.386746   -1.235105
H       0.880499    1.859863    0.516093
H      -0.074956    1.891615   -0.975868
H      -0.875696    1.835455    0.603996
H      -0.088049   -0.484329   -2.147794
H       0.969080   -0.641885    1.834701
H      -0.785458   -0.667007    1.911725
H       0.142043   -4.223408    1.855170
