17

C      -0.051583    1.567084   -0.082487
C       1.492208    1.453235    0.012236
C       2.088102    1.181082   -1.349321
C       2.659547   -0.172899   -1.436798
C       1.889893   -0.919493   -0.345551
C       0.603056   -0.719670   -1.172127
C      -0.020377    0.036935    0.022081
N       1.362138    0.086462    0.666690
N       1.366579    0.158211   -2.163375
H      -0.496372    2.017489    0.806870
H      -0.465558    2.023790   -0.983735
H       2.048706    2.199018    0.585838
H       2.483447    1.995260   -1.948868
H       3.565014   -0.461665   -1.957755
H       2.253209   -1.854621    0.076887
H       0.054505   -1.499378   -1.701530
H      -0.811512   -0.494524    0.557982
