20

C       0.030145    1.614247    0.079876
C      -0.051942    0.083361   -0.065433
C       0.679673   -0.464281   -1.256847
C       0.129110   -0.783100   -2.477822
O      -1.142624   -0.736222   -2.958486
N       1.103924   -1.236789   -3.314193
C       2.314267   -1.220240   -2.640824
C       2.088525   -0.749011   -1.373396
C       3.118248   -0.575506   -0.298476
H       1.070124    1.942409    0.170702
H      -0.393943    2.114266   -0.797078
H      -0.512248    1.959834    0.966794
H       0.334568   -0.382546    0.849963
H      -1.111073   -0.212998   -0.107071
H      -1.714878   -0.412171   -2.256115
H       0.943810   -1.541334   -4.257760
H       3.221550   -1.545685   -3.122841
H       3.233448    0.473382    0.001830
H       2.861575   -1.137202    0.608511
H       4.097439   -0.928633   -0.635453
