21

C      -0.001059    1.571153    0.157908
C      -0.061127    0.040963    0.145161
C      -1.472166   -0.542286   -0.110066
C      -2.018259   -0.186288   -1.506499
C      -1.494233   -2.026651    0.127065
C      -2.127465   -2.792921    1.087966
C      -1.761066   -4.124886    0.799069
N      -0.960358   -4.200833   -0.258717
N      -0.813964   -2.916048   -0.646230
H       1.005090    1.916182    0.414932
H      -0.256449    2.003555   -0.814208
H      -0.692944    1.986321    0.899512
H       0.632177   -0.347511   -0.613412
H       0.297324   -0.343416    1.106719
H      -2.148005   -0.106896    0.636375
H      -2.105661    0.895856   -1.634836
H      -1.359880   -0.560632   -2.299226
H      -3.007361   -0.626298   -1.660220
H      -2.763097   -2.431708    1.880635
H      -2.048189   -5.028650    1.316745
H      -0.239328   -2.718242   -1.447409
