17

C      -0.254023    1.381106   -0.128412
O       1.078682    1.076400    0.249042
C       0.162220   -0.011173    0.133688
C      -0.237298   -0.699835    1.388474
N      -0.297022   -0.147171    2.533884
C      -0.719992   -1.172989    3.499552
C      -1.003083   -2.418345    2.659350
C      -2.005434   -2.314920    1.575466
N      -0.560676   -2.097255    1.278766
H      -0.845435    1.890466    0.629700
H      -0.394296    1.709988   -1.157569
H       0.339841   -0.677992   -0.707013
H       0.088166   -1.352464    4.218473
H      -1.584214   -0.816854    4.071690
H      -0.719090   -3.396283    3.032923
H      -2.423411   -3.213840    1.133752
H      -2.651445   -1.440914    1.551637
