20

C      -0.123010    1.567192    0.054800
C       0.031461    0.054565   -0.011063
C       0.942763   -0.533135   -1.113853
C       2.345578   -0.123982   -0.621050
C       2.153920   -0.606142    0.814954
C       1.264083   -1.800009    0.765432
C       0.921176   -2.029696   -0.699647
O      -0.328669   -2.683846   -0.816597
N       0.722324   -0.489972    1.193116
H       0.838208    2.082112    0.137514
H      -0.635000    1.941508   -0.837952
H      -0.719267    1.841644    0.929768
H      -0.956094   -0.412903   -0.061969
H       0.691292   -0.311850   -2.151196
H       3.146129   -0.664683   -1.136755
H       2.551695    0.946175   -0.701155
H       2.885521   -0.441041    1.596347
H       1.272199   -2.607728    1.486627
H       1.709039   -2.601200   -1.213262
H      -0.514219   -2.806643   -1.753022
