12

N      -0.023795    1.313479   -0.049922
C      -0.020513   -0.004387    0.244707
O       0.836288   -0.618586    0.845665
C      -1.294504   -0.723029   -0.221654
O      -2.319730   -0.145808   -0.501373
C      -1.248338   -2.250313   -0.341988
O      -0.395559   -2.796720   -0.987162
C      -2.445647   -3.016155    0.272109
O      -2.516245   -4.210398    0.202557
H       0.721598    1.900031    0.287975
H      -0.847435    1.729514   -0.453864
H      -3.202793   -2.392742    0.788415
