23

C       0.108039    1.520868   -0.062085
C      -0.036497   -0.000703    0.005023
C      -1.490325   -0.448625   -0.085598
O       0.645679   -0.653114   -1.076184
C       2.016166   -0.731717   -0.953128
C       2.954891    0.308863   -1.507583
C       3.002732   -1.105897   -2.045656
C       3.769900   -2.000573   -1.064648
C       2.738620   -1.636964    0.057299
H       1.153812    1.827483    0.013589
H      -0.295820    1.899028   -1.007026
H      -0.442629    1.989785    0.760044
H       0.390459   -0.358685    0.954696
H      -1.926044   -0.127702   -1.037306
H      -1.559549   -1.538056   -0.028946
H      -2.080222   -0.016251    0.728077
H       2.475771    1.022929   -2.168905
H       3.782759    0.709563   -0.924179
H       2.818227   -1.318889   -3.091232
H       3.740636   -3.060243   -1.326390
H       4.810016   -1.713564   -0.877734
H       3.127970   -1.159875    0.962461
H       2.127991   -2.497221    0.341709
