23

C      -0.110846    1.603000    0.012264
C       0.010409    0.083335    0.008563
C      -1.366967   -0.564312   -0.162852
C       1.067268   -0.618617   -0.891904
C       2.370954    0.171978   -1.020418
C       3.051920    0.288135    0.372465
C       2.063838    0.141132    1.563858
C       0.828782   -0.642561    1.114849
O       1.246636   -1.639254    0.134924
H       0.845979    2.115510    0.132164
H      -0.558796    1.953980   -0.924788
H      -0.767030    1.933114    0.826116
H      -1.831345   -0.250634   -1.104900
H      -1.285331   -1.653958   -0.166161
H      -2.040040   -0.271602    0.651266
H       0.722910   -1.045319   -1.839967
H       3.046689   -0.340756   -1.712638
H       2.163890    1.153464   -1.461587
H       3.783270   -0.519021    0.449746
H       3.615547    1.222453    0.450598
H       2.559972   -0.389653    2.382882
H       1.756425    1.112537    1.967209
H       0.273036   -1.090486    1.945505
