19

C      -0.143229    1.467574    0.027324
C       0.001128   -0.017491   -0.046861
C       0.061489   -0.796003   -1.124204
C       0.152557   -2.250371   -0.764512
N       0.433121   -2.204987    0.678657
C       0.050209   -0.887726    1.213851
C       1.062502   -0.411552    2.270651
C      -1.307718   -0.913568    1.823261
N      -2.364415   -0.966264    2.291700
H       0.709979    1.932323    0.535205
H      -0.220347    1.903061   -0.971738
H      -1.040842    1.747105    0.592460
H       0.030234   -0.447052   -2.149465
H      -0.784130   -2.776018   -1.017203
H       0.961110   -2.770053   -1.296284
H       0.009839   -2.967118    1.192141
H       2.050498   -0.352648    1.808281
H       0.787587    0.565939    2.676870
H       1.107048   -1.124857    3.097903
