21

O      -0.449554    1.348248    0.058999
C      -0.019348   -0.008700   -0.007805
C       0.815846   -0.258038   -1.280073
C       0.049487    0.044606   -2.550581
O       0.031474   -0.672571   -3.518841
C       0.715197   -0.459001    1.254599
C       1.975173    0.320248    1.740329
C       1.470257    0.138921    3.197665
C       0.059261   -0.177797    2.634390
H       0.333615    1.904926    0.135056
H      -0.953613   -0.581053   -0.078918
H       1.696396    0.402822   -1.251445
H       1.179616   -1.288679   -1.329822
H      -0.516355    1.000408   -2.527790
H       0.954826   -1.523413    1.153911
H       2.956937   -0.081840    1.480183
H       1.949630    1.375579    1.443882
H       1.924565   -0.735052    3.672636
H       1.567456    0.990797    3.874272
H      -0.568062    0.715850    2.581638
H      -0.509801   -0.985838    3.099843
