13

N      -0.075475    1.367067   -0.137418
C      -0.084266   -0.013725   -0.050030
C      -1.126917   -0.890049    0.057484
C      -2.604638   -0.683755    0.019640
O      -2.957474    0.328107   -0.920453
O      -0.605190   -2.124980    0.181378
N       0.792361   -1.988384    0.149774
N       1.067916   -0.758749    0.012483
H       0.757091    1.731415   -0.579477
H      -0.925286    1.734212   -0.544842
H      -3.107284   -1.638136   -0.184933
H      -2.974088   -0.319020    0.984663
H      -2.743345   -0.004348   -1.799314
