18

C      -0.069387    1.537727    0.170145
C       0.014954    0.017671    0.053846
C       0.991228   -0.529113   -1.025877
O       1.833643   -1.114418    0.016754
C       1.004222   -0.642565    1.009633
N       1.073782   -0.739696    2.256893
C      -1.332224   -0.678324    0.044343
C      -2.545449   -0.133482    0.660496
O      -2.360621   -0.096679   -0.759438
H       0.910979    1.992946    0.006230
H      -0.771579    1.934410   -0.567857
H      -0.403000    1.827054    1.169992
H       0.598448   -1.301974   -1.690999
H       1.540517    0.223611   -1.595925
H       1.902550   -1.260712    2.548777
H      -1.266117   -1.764287   -0.045936
H      -3.314141   -0.818736    1.013276
H      -2.521176    0.832370    1.158444
