17

C      -0.017436    1.401696    0.039671
C       1.416845    1.934476   -0.006319
N       2.115028    1.275118   -1.098986
C       3.303950    1.599610   -1.686813
N       3.684536    0.694738   -2.559315
C       2.705441   -0.271865   -2.528346
C       1.725217    0.060656   -1.628030
C       0.415190   -0.536370   -1.208370
O      -0.023215   -0.011889    0.040062
H      -0.507627    1.724718    0.961474
H      -0.592578    1.791590   -0.816042
H       1.423370    3.018128   -0.160846
H       1.920779    1.716936    0.942680
H       3.837962    2.503523   -1.432158
H       2.757840   -1.145924   -3.160208
H      -0.359686   -0.351264   -1.972632
H       0.498806   -1.618813   -1.079396
