20

O       0.356342    1.366623   -0.277853
C       0.095295   -0.006019   -0.076335
C      -1.388476   -0.391891   -0.029293
C      -2.222941    0.197322    1.139620
O      -1.749712    1.513294    1.464265
C      -3.661749    0.201866    0.579227
C      -3.485546    0.255218   -0.932843
C      -2.543408    1.257966   -1.489876
N      -2.107658   -0.135811   -1.291333
H      -0.083123    1.830183    0.445354
H       0.553572   -0.534025   -0.918692
H       0.574388   -0.379836    0.844542
H      -1.411581   -1.483212    0.102135
H      -2.137731   -0.436327    2.031516
H      -2.259961    1.847008    2.208162
H      -4.173859   -0.725517    0.860004
H      -4.248955    1.033976    0.982545
H      -4.280933   -0.150849   -1.551605
H      -2.625054    1.546022   -2.533989
H      -2.157482    2.026723   -0.832800
