19

C       1.188669    1.741511    0.317762
C       0.259262    0.558440    0.014196
C       0.602152   -0.033286   -1.383012
O       1.828887   -0.735273   -1.407499
C      -0.508346   -0.867309   -1.891752
N      -1.387830   -1.516717   -2.267547
C       0.366430   -0.495198    1.102871
C      -0.615200   -0.553500    2.213316
N      -0.575808   -1.624227    1.204384
H       2.235714    1.427304    0.272815
H       1.046896    2.551565   -0.404425
H       0.992027    2.138695    1.317247
H      -0.778266    0.913930   -0.033679
H       0.728294    0.795098   -2.089297
H       1.722688   -1.544101   -0.892399
H       1.392026   -0.781137    1.333330
H      -0.296422   -0.847014    3.209297
H      -1.444001    0.150368    2.192754
H      -1.340072   -1.513291    0.542170
