20

C      -0.209853    1.386827   -0.217572
C       1.231661    1.218895    0.195677
C       0.348076    0.006352    0.031231
C      -0.092011   -0.779318    1.238638
C      -1.350187   -1.718265    1.138799
C      -0.496730   -2.888016    1.643653
C       0.650347   -3.123149    0.703693
C       0.742570   -1.991181    1.691124
H      -0.902599    1.790968    0.513845
H      -0.422199    1.684094   -1.238650
H       2.004010    1.400658   -0.543560
H       1.507460    1.511507    1.203897
H       0.532871   -0.591673   -0.857431
H      -0.227511   -0.088326    2.078129
H      -2.147555   -1.420709    1.823299
H      -1.780781   -1.845302    0.139348
H      -0.818468   -3.640058    2.353567
H       1.276291   -3.979647    0.933701
H       0.536837   -2.936134   -0.361970
H       1.533289   -1.957890    2.431666
