18

C       0.002480    1.506267   -0.130545
N      -0.004778    0.050959   -0.035331
C      -1.322167   -0.521328    0.164244
C      -1.174677   -1.870545    0.803309
C      -1.620701   -0.685098    1.657438
C      -0.301970   -0.456444    2.411190
O       0.194751   -1.782630    2.747904
C       0.279895   -1.970046    1.312271
C       0.644151   -0.469296    1.135104
H       1.032382    1.858951   -0.239846
H      -0.555785    1.817074   -1.018817
H      -0.444719    2.004242    0.747380
H      -2.090605   -0.292373   -0.564600
H      -1.793322   -2.724670    0.568343
H      -2.601277   -0.590506    2.101460
H      -0.263526    0.249787    3.238147
H       0.902921   -2.806793    1.002559
H       1.680804   -0.177411    1.281786
