20

C      -0.300656    1.339013   -0.036696
O      -0.249790   -0.058935   -0.175965
C       0.814697   -0.488752   -1.001516
C       0.809956   -1.994880   -1.028784
C      -0.044743   -2.752437   -2.013184
C       1.457282   -2.806254   -2.130026
C       2.166849   -2.188386   -3.307014
O       2.172161   -3.148284   -4.357009
H       0.621493    1.741422    0.413685
H      -0.453524    1.843811   -1.004657
H      -1.143429    1.573427    0.618371
H       0.699543   -0.070767   -2.015271
H       1.773577   -0.109749   -0.604900
H       0.887756   -2.424232   -0.033785
H      -0.577126   -3.634343   -1.676011
H      -0.577707   -2.168547   -2.757500
H       1.928042   -3.730295   -1.805545
H       1.658572   -1.264495   -3.622785
H       3.196225   -1.913989   -3.023257
H       2.696473   -2.793584   -5.081219
