19

C      -0.033012    1.558214    0.081771
C      -0.045442    0.027898   -0.013009
C      -1.470393   -0.530121    0.082726
C       0.705177   -0.489279   -1.304788
C       0.046279   -0.037499   -2.636236
C       2.097430   -0.000396   -1.274734
N       3.173643    0.418228   -1.252392
C       0.747455   -1.964234   -1.273017
N       0.742214   -3.118963   -1.249444
H       0.978137    1.965772    0.001414
H      -0.654916    2.018004   -0.692800
H      -0.440892    1.863591    1.049539
H       0.532501   -0.369470    0.829164
H      -2.122252   -0.113917   -0.691865
H      -1.490053   -1.620188    0.003103
H      -1.900901   -0.257541    1.050486
H       0.033513    1.051793   -2.696569
H       0.610014   -0.425948   -3.486206
H      -0.975461   -0.415575   -2.695144
