19

C       0.104637    1.496209   -0.285939
C       0.033915    0.015984   -0.021562
O       1.284895   -0.701998    0.000153
C       0.546532   -0.612619    1.199897
C       1.034681    0.039417    2.494824
C       0.098697   -0.946644    3.274688
C      -0.015232   -1.807673    1.970353
C       0.706373   -1.631406    4.465283
O       0.225022   -1.673522    5.567661
H       0.901017    1.963575    0.298666
H       0.303975    1.686447   -1.345534
H      -0.846499    1.977112   -0.032282
H      -0.757167   -0.515203   -0.555209
H       2.093528   -0.178034    2.673126
H       0.861361    1.107020    2.643523
H      -0.848641   -0.488812    3.562579
H      -1.006309   -2.181480    1.705949
H       0.693128   -2.643660    1.973659
H       1.685198   -2.123971    4.244814
