20

O       0.110746    0.014338    0.195478
C       0.039017    1.206351   -0.048349
C      -1.295855    1.955904   -0.086094
C      -1.207406    3.490676   -0.212802
C       0.017860    4.039914    0.537362
C       1.250775    3.441854   -0.119327
C       2.589443    3.223997    0.641622
C       2.485958    1.714880    0.266168
N       1.142344    1.975169   -0.271598
H      -1.902012    1.525455   -0.889755
H      -1.799170    1.676254    0.846281
H      -1.129194    3.777165   -1.269133
H      -2.129983    3.944926    0.162106
H       0.050167    5.133756    0.498179
H      -0.025119    3.747322    1.594757
H       1.408776    3.921409   -1.095686
H       3.455068    3.763707    0.255358
H       2.502860    3.403710    1.715726
H       3.198171    1.380745   -0.495165
H       2.480861    0.993548    1.087002
