19

C       0.013968    1.668853    0.115684
C      -0.018521    0.151618    0.022381
C       1.051478   -0.475092   -0.919345
C       1.946029   -0.714229    0.328718
C       0.687611   -0.569994    1.207054
O       0.882763    0.114139    2.415273
O      -1.380065   -0.306778   -0.116768
C      -1.961936   -0.222629   -1.324675
O      -3.097100   -0.545919   -1.518689
H       1.028671    2.024988    0.309261
H      -0.339087    2.123628   -0.815424
H      -0.624254    2.010801    0.934472
H       0.699122   -1.413284   -1.354643
H       1.448093    0.161277   -1.712724
H       2.495099   -1.654316    0.390683
H       2.635603    0.113862    0.508545
H       0.200275   -1.542447    1.357128
H       0.081067    0.042347    2.943393
H      -1.285764    0.161104   -2.111386
