16

C      -0.972599    1.809896    0.004042
N      -1.167153    0.426533   -0.377176
C      -0.267213   -0.400088   -0.049593
N      -0.385839   -1.738840   -0.380831
C       0.539493   -2.692741   -0.064490
N       1.658885   -2.553250    0.576169
C       2.177464   -3.847743    0.601891
C       1.335760   -4.691857   -0.027380
O       0.254753   -3.948167   -0.471048
H      -0.035617    1.993497    0.553280
H      -0.977357    2.443024   -0.890989
H      -1.809683    2.140943    0.629846
H       0.653019   -0.173621    0.498476
H      -1.211143   -2.020662   -0.888152
H       3.121607   -4.064481    1.075633
H       1.312696   -5.743268   -0.249675
