16

C      -0.120363    1.492966    0.042747
N      -0.074702    0.041556   -0.041155
C      -1.161114   -0.755834   -0.007424
C      -1.149951   -2.133132    0.018932
C      -2.415273   -2.751353    0.038449
N      -3.566539   -2.129758    0.021725
C      -3.563015   -0.759582   -0.020967
N      -4.546816    0.036395   -0.063067
O      -2.306164   -0.080876   -0.013474
H       0.838956    1.888707   -0.295494
H      -0.910504    1.878420   -0.602635
H      -0.309278    1.844046    1.064348
H       0.815182   -0.416543    0.058949
H      -0.226383   -2.693225    0.027584
H      -2.462389   -3.839981    0.070970
H      -5.397795   -0.523282   -0.059423
