16

C      -0.089618   -1.203976    0.023764
C      -0.024687   -0.005873    0.083531
C       0.064881    1.446890    0.136423
C       1.490191    1.980779   -0.084743
C       1.560605    3.526726   -0.101742
O       2.721760    3.823604    0.654317
C       2.776656    2.806008    1.620390
O       2.360123    1.615015    0.986027
H      -0.147747   -2.263184   -0.019394
H      -0.590851    1.884308   -0.629408
H      -0.298718    1.812498    1.105093
H       1.896814    1.551579   -1.007274
H       1.679154    3.947900   -1.101905
H       0.663047    3.963462    0.365920
H       3.808099    2.694768    1.966505
H       2.112970    3.040773    2.473443
