14

O       0.049796   -0.004529   -0.151048
C       0.012712    1.184014   -0.043208
N      -1.006337    2.095639    0.099743
C      -0.159269    3.292014    0.075987
C       0.015140    4.014616    1.416023
O       1.034757    3.311208    2.136510
C       1.753645    2.468489    1.334023
O       2.743866    1.918416    1.708383
C       1.064597    2.350904   -0.014954
H      -2.006683    1.972986    0.161441
H      -0.354358    3.964206   -0.761810
H       0.341190    5.050244    1.267628
H      -0.894993    4.012185    2.021770
H       1.751400    2.397515   -0.856559
