20

C      -0.329455    1.468211   -0.061668
C       0.196818    0.030157    0.043859
C       0.852983   -0.459770   -1.218310
N       0.066136   -0.896273   -2.401433
C       0.933508   -1.863467   -1.677873
C       2.402765   -1.887681   -2.154089
C       2.558585   -0.598670   -2.991125
C       2.304607   -0.030339   -1.578898
O       3.058399   -1.175974   -1.039233
H       0.477914    2.171414   -0.291239
H      -1.079653    1.558451   -0.854061
H      -0.790460    1.786712    0.878004
H       0.925095   -0.043014    0.861209
H      -0.627342   -0.646449    0.305578
H      -0.897271   -1.050514   -2.102437
H       0.497608   -2.697124   -1.139859
H       2.866454   -2.841374   -2.402425
H       3.597477   -0.453478   -3.284855
H       1.855647   -0.386550   -3.793205
H       2.667911    0.936783   -1.231863
