20

C      -0.205558    1.596968    0.022644
C       0.000706    0.082118    0.018846
C      -1.325825   -0.637428   -0.245225
C       1.135619   -0.497407   -0.899190
C       1.744232   -1.221728    0.308715
C       2.153413   -0.236397    1.359151
O       2.654787    1.041226    1.070119
C       0.700583   -0.552729    1.241785
H       0.734525    2.124013    0.186306
H      -0.634791    1.928442   -0.930862
H      -0.904652    1.889989    0.815051
H      -1.738940   -0.345171   -1.217262
H      -1.198610   -1.725283   -0.242776
H      -2.067447   -0.385986    0.522233
H       0.752996   -1.170802   -1.669181
H       1.790132    0.242629   -1.369256
H       2.111014   -2.241992    0.307332
H       2.615587   -0.697522    2.234066
H       3.533088    0.932462    0.689870
H       0.159620   -0.980414    2.080429
