19

C       0.163424    1.495903    0.114185
C       0.011320   -0.037328    0.040847
N       0.501545   -0.594541    1.303816
C      -1.428113   -0.374202   -0.046780
N      -2.547454   -0.651599   -0.109206
C       0.688957   -0.571875   -1.248821
O       0.143897   -0.035470   -2.423354
C       2.156632   -0.916297   -1.265751
C       1.103122   -2.002595   -1.377267
H       1.227504    1.753130    0.150521
H      -0.289563    1.980165   -0.752866
H      -0.319849    1.872449    1.017035
H       0.407138   -1.603979    1.327484
H       1.480174   -0.361222    1.433965
H       0.500810    0.850193   -2.549693
H       2.703468   -0.651778   -2.163856
H       2.734864   -0.859899   -0.350074
H       0.971793   -2.672101   -0.534986
H       0.942852   -2.454836   -2.348206
