18

O      -0.380932    1.552039    0.226408
C       0.087028    0.220087    0.198268
C      -1.030745   -0.746628   -0.195978
N      -1.601527   -0.282270   -1.454277
C      -2.266210   -1.079534   -2.174925
O      -2.514206   -2.397339   -1.863192
C      -3.284429   -2.996880   -2.908323
C      -3.496702   -1.898000   -3.908619
C      -2.900071   -0.791312   -3.465651
H      -0.895747    1.646288   -0.586799
H       0.927326    0.104906   -0.507087
H       0.458958   -0.019414    1.200488
H      -0.654021   -1.776496   -0.258680
H      -1.808711   -0.728410    0.580351
H      -2.730214   -3.850502   -3.321356
H      -4.223386   -3.379999   -2.486779
H      -4.050135   -2.031931   -4.828108
H      -2.850084    0.182681   -3.928505
