14

O       0.126169    0.401471   -0.805955
C      -0.058272    1.209372    0.048709
O      -1.283175    1.735696    0.274840
C      -1.442403    2.613003    1.391673
C      -0.807991    3.976655    1.099564
O       0.420629    3.843128    0.394970
C       1.332825    2.969430    0.958639
O       0.903750    1.595700    0.942143
H      -2.519989    2.719415    1.535609
H      -1.012985    2.153258    2.285796
H      -1.445771    4.568676    0.439602
H      -0.666659    4.529127    2.040550
H       2.243970    3.050132    0.359354
H       1.541935    3.191122    2.014497
