21

O      -0.194915    1.472569    0.114851
C       0.038970    0.091209   -0.069923
C      -1.267588   -0.687652   -0.115197
O      -2.020102   -0.146756   -1.186687
C      -3.381468   -0.563961   -1.244710
C      -4.139067    0.343529   -2.238664
C      -5.081670   -0.589297   -3.037811
C      -4.507631   -1.960733   -2.776422
C      -3.591526   -1.952598   -1.810785
H      -0.881518    1.701097   -0.523429
H       0.602963   -0.102004   -0.996667
H       0.647640   -0.254461    0.772223
H      -1.071539   -1.761928   -0.258496
H      -1.813044   -0.560363    0.833676
H      -3.800960   -0.496493   -0.225972
H      -4.663206    1.163549   -1.743258
H      -3.388344    0.781356   -2.902956
H      -6.116194   -0.527836   -2.673781
H      -5.119943   -0.342163   -4.104804
H      -4.846629   -2.843695   -3.308179
H      -3.071557   -2.823127   -1.427636
