20

O      -0.444389    0.449525    0.716595
C       0.076068    1.009349   -0.211510
C       1.289296    1.921039   -0.099635
N       1.295518    2.925763   -1.144453
C       0.295285    3.970174   -0.917986
C       0.288423    4.942703   -2.094737
O       1.570033    5.509130   -2.300716
C       2.537131    4.501263   -2.537208
C       2.611892    3.519915   -1.370112
H      -0.280110    0.879141   -1.259122
H       1.341525    2.325425    0.926786
H       2.168074    1.273211   -0.233133
H      -0.694697    3.509928   -0.816786
H       0.499144    4.528536    0.015843
H      -0.045253    4.414042   -3.002505
H      -0.395684    5.773544   -1.901725
H       2.294893    3.950429   -3.460698
H       3.495097    5.010591   -2.673510
H       2.981852    4.053619   -0.474081
H       3.327694    2.723783   -1.604577
