18

C      -0.011014    1.481147   -0.040510
C       0.049201   -0.005959    0.089451
C       1.212864   -0.896369   -0.230156
C       0.554158   -0.975179    1.145199
C       1.295639   -0.789349    2.432004
O       1.942745   -1.978399    2.872218
C      -0.797746   -1.657951    0.969776
O      -1.174305   -0.734129   -0.087847
H       0.959991    1.929916    0.187001
H      -0.278980    1.759468   -1.066110
H      -0.762190    1.904989    0.632817
H       1.092228   -1.700777   -0.951284
H       2.185393   -0.411068   -0.237238
H       2.012622    0.041727    2.329429
H       0.604269   -0.521721    3.239031
H       2.506378   -2.278590    2.151064
H      -0.808293   -2.701712    0.635277
H      -1.458657   -1.541732    1.837216
