22

C      -0.108353    1.599113    0.277783
C      -0.008449    0.096439   -0.039247
C       0.839803   -0.616439    1.029949
C      -1.419925   -0.518109   -0.057625
O      -2.025189   -0.329539    1.212281
C       0.588535   -0.133038   -1.455811
C       2.047966    0.293270   -1.588680
N       2.942375   -0.732311   -1.730762
O       2.402458    1.457336   -1.587691
H       0.875173    2.070345    0.247755
H      -0.740468    2.109390   -0.457878
H      -0.554910    1.745127    1.263891
H       0.351670   -0.547064    2.004367
H       0.965145   -1.680847    0.795087
H       1.834240   -0.167670    1.110475
H      -2.013076   -0.037248   -0.852445
H      -1.348701   -1.591746   -0.300639
H      -2.916825   -0.686345    1.178005
H       0.476900   -1.189491   -1.729420
H       0.022122    0.455484   -2.185345
H       2.678069   -1.692057   -1.596275
H       3.922847   -0.500210   -1.724246
