15

O       0.383173    1.009032   -0.685772
C      -0.019231   -0.098045    0.087931
C       0.517017   -0.079032    1.565771
C      -0.615226   -0.725583    2.295846
N      -0.843557   -1.288756    3.442180
O      -2.176013   -1.658961    3.381792
N      -2.754885   -1.314733    2.171755
C      -1.797380   -0.742178    1.509757
C      -1.577131   -0.111739    0.173223
H       1.316632    0.914480   -0.899442
H       0.306183   -1.039707   -0.378443
H       1.477014   -0.587998    1.679103
H       0.643553    0.963293    1.881543
H      -1.938471    0.923252    0.159493
H      -2.039292   -0.639380   -0.662620
