13

N      -0.024884   -1.200122   -0.150318
C      -0.011065   -0.046633   -0.071603
C       0.011907    1.406060    0.056170
C      -0.250499    2.019286    1.467529
C       1.156778    2.598517    1.368173
C       2.155415    1.546730    1.112996
N       1.379112    2.052283   -0.039533
H      -0.630796    1.839222   -0.712749
H      -1.042643    2.767842    1.438185
H      -0.438908    1.326009    2.290218
H       1.430591    3.616875    1.620723
H       3.197213    1.844973    1.060174
H       1.990355    0.529348    1.460172
