20

C       0.077025    1.535203   -0.086015
C       0.032475    0.009598    0.077667
C       0.753817   -0.430042    1.359246
C      -1.421632   -0.510473   -0.016310
C      -1.567563   -2.048972    0.068850
O      -1.976273   -2.326784    1.412427
C      -2.443742   -1.179235    1.996485
O      -2.916337   -1.139146    3.097656
N      -2.277802   -0.147192    1.100107
H       1.110126    1.894751   -0.108021
H      -0.410501    1.856809   -1.012568
H      -0.420458    2.041349    0.750077
H       0.554810   -0.433189   -0.782936
H       0.755712   -1.516638    1.483894
H       1.795277   -0.095123    1.342546
H       0.282809    0.003237    2.247610
H      -1.850338   -0.149076   -0.958626
H      -2.337604   -2.416645   -0.617847
H      -0.632460   -2.577488   -0.129323
H      -2.361849    0.794117    1.445599
