17

C       0.180689    1.474201   -0.121234
C      -0.012556   -0.011587   -0.069680
C      -0.916815   -0.692383    0.880542
N       0.539314   -0.878604    1.063377
C       0.940105   -1.887556    0.016367
C       0.458861   -0.995354   -1.145787
C       2.432439   -2.125091    0.105860
O       3.204501   -2.004807   -0.809679
H       1.198617    1.729379   -0.433836
H      -0.515170    1.928566   -0.836517
H       0.001516    1.924730    0.859264
H      -1.363689   -0.091979    1.667502
H      -1.518786   -1.542413    0.563146
H       0.438842   -2.857542    0.149781
H      -0.306684   -1.393409   -1.816551
H       1.301382   -0.632485   -1.737419
H       2.771097   -2.421395    1.123022
