24

C      -0.104517    1.518615    0.086239
C       0.056368   -0.001930    0.100454
O      -1.199259   -0.646286    0.331253
C       0.739365   -0.516334   -1.173469
C       0.886859   -2.041784   -1.281231
C       1.500495   -2.429550   -2.629180
N       1.749782   -2.544341   -0.206533
C       1.092154   -2.943039    1.039457
C       1.619709   -3.966324    0.099958
H       0.866514    2.018704    0.010563
H      -0.710626    1.838558   -0.771168
H      -0.600523    1.857070    0.999946
H       0.663583   -0.282261    0.966842
H      -1.784581   -0.416862   -0.399480
H       0.166445   -0.163927   -2.044195
H       1.734540   -0.060843   -1.247978
H      -0.120848   -2.488704   -1.208837
H       2.504944   -2.005516   -2.727612
H       1.582998   -3.516343   -2.724738
H       0.886199   -2.062820   -3.457478
H       1.635158   -2.706456    1.950760
H       0.013818   -2.820471    1.101782
H       0.888191   -4.545034   -0.462716
H       2.545233   -4.493350    0.314405
