18

C      -0.069577    1.533047    0.015039
C       0.031585    0.036533   -0.027009
C       0.819386   -0.798163   -1.025323
N      -0.145469   -1.947177   -0.828860
C       0.420809   -2.885189    0.153212
C       0.571506   -2.074517    1.458157
O       1.166289   -2.399499    2.455002
C      -0.232225   -0.829777    1.233898
C      -1.025124   -1.023370   -0.039933
H       0.862914    1.983085    0.373088
H      -0.274112    1.933951   -0.984020
H      -0.874709    1.861058    0.679631
H       0.738174   -0.414141   -2.047129
H       1.868993   -1.027734   -0.807590
H      -0.278964   -3.712372    0.325385
H       1.369549   -3.308839   -0.184801
H      -0.639635   -0.300842    2.086446
H      -2.103084   -1.004642   -0.142182
