19

O       0.081375    1.401533    0.169479
C       0.006398   -0.013978    0.215757
C      -1.391652   -0.538539   -0.140224
C      -1.479201   -2.028750   -0.078114
C      -1.645053   -2.879701    1.163576
C      -2.595339   -3.040590   -0.005494
O      -3.958706   -2.846088    0.070004
C      -1.875206   -3.748512   -1.149682
O      -0.781900   -2.791679   -1.079373
H      -0.031683    1.672284   -0.747180
H       0.755741   -0.482025   -0.439210
H       0.254355   -0.293763    1.244837
H      -2.125908   -0.102876    0.545815
H      -1.656907   -0.209419   -1.153885
H      -0.911478   -3.643472    1.409417
H      -2.084037   -2.357556    2.009078
H      -4.322824   -3.470870    0.706760
H      -1.538733   -4.781026   -0.997814
H      -2.409278   -3.660540   -2.102611
