11

O      -0.075590    0.023195   -0.230479
C       0.042680    1.172038    0.114793
C       1.299166    1.949935    0.077156
C       1.204133    3.441405   -0.218915
C       1.523206    2.992878    1.164938
H      -0.831024    1.751502    0.503765
H       2.159951    1.407769   -0.297029
H       1.991487    3.863990   -0.831667
H       0.216792    3.848035   -0.411964
H       0.755846    3.090292    1.925942
H       2.536784    3.097440    1.533308
