25

C       0.045116    1.370044   -0.118803
O       0.021252   -0.035268   -0.098055
C      -1.280682   -0.560494    0.087413
C      -1.173860   -2.088054    0.133232
C      -0.410023   -2.533594    1.388927
C      -2.553278   -2.776373   -0.076397
C      -2.406997   -4.305069   -0.110943
C      -3.599457   -2.369470    0.966567
O      -3.105812   -2.338608   -1.329025
H       1.082447    1.679644   -0.270504
H      -0.570620    1.778667   -0.936133
H      -0.318651    1.801095    0.828032
H      -1.709179   -0.170818    1.026789
H      -1.941860   -0.252011   -0.734649
H      -0.564548   -2.367391   -0.739989
H      -0.987441   -2.341513    2.300196
H      -0.159255   -3.597141    1.365633
H       0.521984   -1.968080    1.461806
H      -2.136544   -4.717204    0.864965
H      -3.355667   -4.751531   -0.421813
H      -1.634204   -4.609173   -0.827553
H      -3.794633   -1.294976    0.928288
H      -4.541180   -2.886228    0.761785
H      -3.276658   -2.631107    1.977451
H      -2.505158   -2.621631   -2.027469
