16

C      -0.076776    1.517398    0.136103
C       0.036186    0.006006   -0.043325
C       0.756980   -0.393937   -1.319206
O       1.198548    0.403835   -2.116105
C       0.889962   -1.829191   -1.534634
C       0.997708   -3.016703   -1.708510
C       1.125151   -4.455766   -1.913688
C       1.833812   -4.814137   -3.149180
N       2.387970   -5.117959   -4.114900
H       0.911856    1.981889    0.168527
H      -0.621943    1.969837   -0.695927
H      -0.602245    1.753435    1.065227
H       0.567250   -0.463497    0.796116
H      -0.951242   -0.475561   -0.057991
H       1.653709   -4.910200   -1.065646
H       0.130959   -4.920693   -1.936061
