19

N       0.400183    1.459149    0.159457
C       0.207340    0.061697    0.064752
C      -1.017012   -0.569127   -0.005360
N      -0.790960   -1.926119   -0.064623
C       0.552122   -2.170996   -0.009137
C       1.215358   -0.962318    0.061152
C       2.709501   -0.799085    0.076405
C       3.308591   -0.264346    1.380420
O       3.066572    1.141202    1.457107
H       1.363240    1.675093    0.391194
H       0.129591    1.949503   -0.684422
H      -2.014726   -0.161817   -0.013405
H      -1.506490   -2.627940   -0.115150
H       0.940106   -3.177274   -0.045306
H       3.172681   -1.771340   -0.128828
H       3.038813   -0.125419   -0.727062
H       2.860667   -0.787760    2.235558
H       4.393143   -0.453687    1.394485
H       3.078152    1.408822    2.379763
