18

O       0.020278   -0.010032   -0.278387
C       0.007590    1.153921    0.016373
O      -1.197756    1.756489    0.234268
C      -1.366831    2.898274    1.089467
C      -0.647509    4.189910    0.667834
N       0.787326    4.091588    0.396235
C       1.062938    3.292279   -0.840431
C       1.264282    2.007540    0.009534
C       1.455656    3.005302    1.183716
H      -2.445226    3.078514    1.091873
H      -1.089900    2.613138    2.110699
H      -1.122727    4.606560   -0.226693
H      -0.812222    4.911620    1.479765
H       0.261718    3.287985   -1.583532
H       1.991915    3.629316   -1.310806
H       2.097726    1.349095   -0.235401
H       2.514000    3.245238    1.324274
H       1.024915    2.773944    2.159674
