14

C      -0.031610    1.490480   -0.018110
C      -0.003607   -0.004491   -0.035814
N      -0.024652   -0.653628   -1.165924
C       0.001360   -2.000889   -1.157811
F      -0.022687   -2.591485   -2.350002
C       0.048998   -2.743350   -0.026118
N       0.071281   -2.064924    1.164710
C       0.048347   -0.679010    1.279586
O       0.069367   -0.115120    2.361234
H       0.851895    1.880047    0.499463
H      -0.070795    1.878422   -1.035872
H      -0.895110    1.846691    0.554289
H       0.070198   -3.823821   -0.005966
H       0.106762   -2.571010    2.039026
