16

C      -0.070413    1.499112    0.079018
C       1.324623    2.111801   -0.053280
C       2.396477    1.336014   -0.254795
C       1.999907   -0.084399   -0.317025
O       2.678226   -1.350594   -0.506657
C       1.244016   -1.718582   -0.349663
C       0.969582   -0.632000    0.712837
N      -0.177322    0.012532   -0.026174
C       0.730773   -0.484857   -1.123862
H      -0.504842    1.793098    1.043773
H      -0.729658    1.931618   -0.685340
H       1.401155    3.192703    0.023367
H       3.414398    1.691634   -0.358652
H       0.984531   -2.774006   -0.400479
H       1.050452   -0.675017    1.798969
H       0.532090   -0.355626   -2.187768
