21

C       0.128474    1.484963    0.139035
C      -0.085973   -0.032332    0.142507
C      -1.553789   -0.520172   -0.071273
C      -2.139700   -0.008936   -1.408815
C      -1.532744   -1.986213   -0.091020
C      -1.491236   -3.186641   -0.144508
C      -2.435831   -0.001346    1.069460
C      -3.456934   -0.797547    1.758253
O      -2.195126   -0.513131    2.374933
H       1.188256    1.706434    0.297951
H      -0.160104    1.942415   -0.812069
H      -0.428596    1.983016    0.938166
H       0.529983   -0.489863   -0.639467
H       0.256929   -0.448804    1.094778
H      -1.500106   -0.306084   -2.244202
H      -3.135675   -0.427103   -1.576876
H      -2.222856    1.081662   -1.408823
H      -1.454185   -4.247398   -0.180328
H      -2.583251    1.079338    1.037987
H      -4.315325   -0.296978    2.204357
H      -3.605143   -1.836067    1.473451
