13

C      -0.032860    1.488238   -0.018123
C      -0.004625   -0.001263   -0.040687
N      -0.026551   -0.654752   -1.163707
C       0.002201   -2.010984   -1.089202
F      -0.020361   -2.627757   -2.252940
N       0.049788   -2.758812   -0.040376
N       0.071952   -2.065982    1.120610
C       0.049069   -0.694006    1.270907
O       0.072872   -0.142617    2.356801
H       0.851669    1.868542    0.504660
H      -0.074690    1.884949   -1.032060
H      -0.893829    1.834710    0.564014
H       0.109493   -2.632688    1.957722
