21

C      -0.321492    1.482435    0.531213
C      -0.209045   -0.017584    0.785292
C       1.219645   -0.509275    0.932757
O       2.174672    0.230235    0.868402
C       1.415457   -1.999409    1.219018
C       1.635507   -2.243150    2.719951
O       0.476319   -1.910282    3.495574
C       2.053052   -3.680040    3.038356
O       2.210264   -3.863847    4.426586
H       0.199098    1.762307   -0.388306
H      -1.368843    1.783867    0.441947
H       0.134456    2.049158    1.346786
H      -0.732797   -0.312214    1.705606
H      -0.685525   -0.598762   -0.017204
H       0.560238   -2.592619    0.871405
H       2.306568   -2.327679    0.674614
H       2.412880   -1.562511    3.082402
H      -0.249554   -2.469515    3.190993
H       1.299543   -4.374213    2.618604
H       3.011208   -3.912883    2.561555
H       1.487923   -3.372238    4.838664
