13

O      -0.080779    0.032827    0.450231
C       0.055434    1.011021   -0.230125
C       1.284307    1.917155   -0.127212
N       1.323344    2.918955   -1.166205
N       1.662597    2.617244   -2.416376
C       1.505526    3.770737   -3.067840
C       1.058791    4.740527   -2.159539
N       0.943860    4.176640   -0.956008
H      -0.700908    1.335365   -0.977259
H       1.263142    2.436660    0.833703
H       2.185440    1.301593   -0.176981
H       1.717497    3.846573   -4.122185
H       0.826793    5.782705   -2.308689
