18

C       0.113023    1.431609   -0.075949
N       0.021288   -0.023287    0.005981
C      -1.190155   -0.593702    0.695905
C      -0.899786   -2.093663    0.416345
C       0.414062   -2.229435    0.669012
C       0.737633   -0.813696    1.122547
C       1.556982    0.062342    2.058078
O       0.311260    0.603613    2.613915
C      -0.431731   -0.527528    2.073495
H       1.114545    1.703326   -0.426287
H      -0.589504    1.754117   -0.853216
H      -0.102600    1.986696    0.845684
H      -2.179281   -0.197227    0.458825
H      -1.611123   -2.819464    0.051194
H       1.061254   -3.088604    0.578163
H       2.121402   -0.485100    2.823691
H       2.181119    0.843867    1.616257
H      -0.751219   -1.201667    2.874387
