13

N      -0.018318   -1.171269   -0.084184
C      -0.020212   -0.015970   -0.067357
C      -0.023069    1.464101   -0.082828
N      -0.641700    2.019715    1.126317
C       0.201502    3.099192    1.665224
C       1.487948    2.949900    0.902598
C       1.377628    2.045696   -0.062252
H      -0.543820    1.757708   -1.010705
H      -1.599815    2.298154    0.974083
H      -0.233691    4.100639    1.512605
H       0.348821    2.983474    2.748600
H       2.374573    3.526892    1.133603
H       2.138523    1.731052   -0.763456
