18

C       0.122683    1.484513   -0.020679
C      -0.330522    0.031447   -0.033281
O      -1.152496   -0.410320    0.741840
N       0.269632   -0.734293   -1.011009
C       0.159326   -2.167491   -1.061707
C      -1.228105   -2.738666   -1.274913
C      -0.247549   -2.764563   -2.406073
C       1.099092   -2.899609   -0.249018
C       1.902812   -3.498190    0.415993
H       1.025058    1.577805    0.593618
H       0.352205    1.862280   -1.021234
H      -0.661570    2.092010    0.431153
H       1.048607   -0.328327   -1.507155
H      -1.453159   -3.664132   -0.760152
H      -2.035713   -2.019501   -1.298932
H      -0.384016   -2.060101   -3.218714
H       0.209317   -3.707440   -2.680811
H       2.600493   -4.025809    1.017820
