21

C       0.141257    1.530408    0.148805
C       1.409208    0.742581   -0.008871
C       1.737861    0.005316    1.294836
C       0.354335   -0.738093    1.198665
C       0.470248   -2.261450    1.052651
C       0.458733   -2.729569    2.513310
O      -0.269064   -1.742392    3.249067
C      -0.600403   -0.653901    2.391466
C       0.048992    0.044806   -0.081792
H      -0.122971    1.966937    1.108951
H      -0.136661    2.141430   -0.704224
H       2.109729    0.943154   -0.809870
H       2.583014   -0.682245    1.208343
H       1.894056    0.638876    2.174589
H      -0.408250   -2.645718    0.520143
H       1.359938   -2.581919    0.504702
H      -0.021375   -3.707051    2.641713
H       1.477652   -2.800676    2.920367
H      -0.505205    0.273532    2.965375
H      -1.645442   -0.734644    2.048426
H      -0.464860   -0.365770   -0.944117
