14

C      -0.001368    1.494464   -0.089664
C       0.002419    0.004622    0.048184
N      -0.061331   -0.777923   -1.032292
N      -0.037795   -2.031258   -0.556674
C       0.039596   -2.088698    0.805258
C       0.067512   -0.768067    1.228264
C       0.076345   -3.308817    1.510817
C       0.106905   -4.359300    2.099026
H       0.906274    1.937365    0.334256
H      -0.058496    1.769145   -1.144866
H      -0.855079    1.941844    0.430669
H      -0.076110   -2.809575   -1.193191
H       0.126648   -0.426578    2.248615
H       0.134290   -5.281408    2.624970
