14

N      -0.006494    1.431609    0.160610
C       0.024097    0.040182    0.037363
C      -1.030485   -0.826328    0.002585
O      -0.610895   -2.173685   -0.027091
C       0.719717   -2.075287   -0.024445
C       1.210548   -0.788260    0.017847
C       2.616432   -0.974293    0.020630
N       2.934135   -2.266113   -0.019596
N       1.744075   -2.946544   -0.047314
H       0.721844    1.888749   -0.372255
H      -0.903990    1.835526   -0.073087
H      -2.097828   -0.688901    0.008508
H       3.411857   -0.244692    0.052828
H       1.746533   -3.950480   -0.075858
