15

N       0.144334    1.183455   -0.457898
C      -0.115417    0.176181    0.420368
O       0.511829    0.001925    1.444694
C      -1.298426   -0.720181    0.086674
C      -1.829747   -0.978733   -1.339883
O      -1.791040   -2.406845   -1.126713
C      -1.066272   -2.259523    0.111966
C       0.322700   -2.717610   -0.017352
N       1.401581   -3.106544   -0.155798
H       0.943874    1.769313   -0.276526
H      -0.313044    1.262105   -1.348613
H      -2.103198   -0.459205    0.777626
H      -2.841356   -0.628297   -1.564235
H      -1.150783   -0.680399   -2.150178
H      -1.545759   -2.801643    0.932197
