19

C      -0.098497    1.471259    0.037397
C       1.284879    2.143501   -0.037747
C       1.982249    1.995462   -1.381718
C       3.197507    1.134926   -1.562697
O       3.158507    0.026039   -0.663727
C       1.960666   -0.499439   -1.355277
C       0.804448   -0.871197   -0.476940
C      -0.073538   -0.037265    0.086732
C       1.909050    0.745107   -2.241893
H      -0.620602    1.829173    0.933047
H      -0.716285    1.801184   -0.811068
H       1.172777    3.209702    0.187223
H       1.920939    1.714404    0.742747
H       2.004159    2.889496   -2.001648
H       4.165224    1.452392   -1.933757
H       2.282361   -1.373030   -1.933802
H       0.673520   -1.937387   -0.305804
H      -0.875617   -0.487559    0.670045
H       1.619523    0.755367   -3.284091
