18

C       0.031824    1.563711    0.027914
C       0.010195    0.021844    0.034548
C       0.762445   -0.499243    1.172405
C       1.399304   -0.898203    2.110138
C      -1.452197   -0.552812    0.018420
C      -1.466303   -2.084120    0.050305
O      -2.202424   -0.125545    1.140651
C      -2.110788   -0.086664   -1.229486
N      -2.624223    0.298823   -2.190677
H       1.061816    1.921509   -0.030319
H      -0.520825    1.957103   -0.829694
H      -0.398177    1.964802    0.950837
H       0.485486   -0.330076   -0.890570
H       1.961713   -1.257375    2.936520
H      -1.002256   -2.419243    0.979198
H      -2.496385   -2.443146    0.012094
H      -0.913612   -2.494655   -0.798058
H      -2.300127    0.832575    1.107999
