19

C       0.126205    1.436163   -0.250925
C      -0.063487   -0.064716   -0.004225
O       0.670787   -0.489684    1.133614
C      -1.533491   -0.474297    0.169103
O      -2.069439    0.123411    1.343256
C      -2.421213   -0.380229   -1.116230
C      -2.425888   -1.918879   -1.154244
O      -2.783503   -2.720628   -1.966336
C      -1.738301   -2.015620    0.211625
H       1.191950    1.657790   -0.342430
H      -0.375530    1.770696   -1.164652
H      -0.256520    2.025502    0.590759
H       0.352034   -0.619431   -0.855058
H       0.140205   -0.232870    1.899346
H      -2.171664    1.068200    1.183783
H      -3.416733    0.023841   -0.904794
H      -2.009681    0.121020   -1.996263
H      -0.839560   -2.632459    0.274466
H      -2.434242   -2.312054    1.002585
