20

C       0.087410    1.553840   -0.014268
C       0.038898    0.020744   -0.009052
C      -1.426071   -0.464311   -0.004190
C       0.802122   -0.648234   -1.149455
C       2.312980   -0.503837   -1.200907
C       1.683980   -1.680062   -0.514380
O       1.572717   -1.582331    0.894701
C       0.737678   -0.548416    1.231527
N       0.556394   -0.136682    2.410124
H       1.114835    1.922896   -0.076746
H      -0.469457    1.950713   -0.869272
H      -0.354088    1.942681    0.906603
H      -1.949922   -0.097993   -0.893538
H      -1.484063   -1.557376    0.000176
H      -1.942297   -0.091530    0.883796
H       0.270147   -0.853311   -2.071025
H       2.792326   -0.674526   -2.158684
H       2.797853    0.239933   -0.576445
H       1.809406   -2.701489   -0.849532
H       1.119745   -0.669757    3.074039
