17

C      -0.058584    1.480104    0.062838
C       0.002448   -0.008114   -0.017639
N       0.092517   -0.670608   -1.103259
C       0.114007   -2.111930   -0.751791
C       1.236060   -2.814488   -1.368156
C       2.161303   -3.408068   -1.852817
C       0.113913   -2.133790    0.788139
C       1.212344   -1.435688    1.489132
N      -0.077177   -0.736458    1.221911
H       0.750436    1.858089    0.697643
H       0.021234    1.917566   -0.932169
H      -0.998844    1.790504    0.529873
H      -0.819190   -2.561091   -1.118052
H       2.976715   -3.928484   -2.290975
H      -0.470132   -2.889549    1.300961
H       1.403523   -1.643517    2.536883
H       2.076526   -1.128867    0.906134
