19

C       0.185147    1.503478    0.007847
C      -0.018479    0.003055   -0.003902
C      -0.907439   -0.641536    1.009566
N       0.542559   -0.735804    1.144107
C       1.152902   -2.038241    0.845709
C       1.785678   -2.006709   -0.530617
O       0.793631   -1.743578   -1.532741
C       0.028181   -0.624153   -1.372692
N      -0.634125   -0.129120   -2.330480
H       1.175691    1.766920   -0.377647
H      -0.563274    1.985190   -0.625292
H       0.103511    1.883396    1.028957
H      -1.415080   -0.021377    1.744044
H      -1.451903   -1.536344    0.712422
H       1.916226   -2.251396    1.602891
H       0.414480   -2.850389    0.881110
H       2.570184   -1.240041   -0.578693
H       2.225837   -2.970141   -0.796995
H      -0.473860   -0.668866   -3.183638
