19

C      -0.001518    1.502638    0.048358
C       1.380946    2.110383   -0.050571
C       2.447140    1.548910   -0.950839
C       2.588142    1.478393    0.586427
C       2.510278   -0.068449    0.521893
C       1.151922   -0.809718    0.613201
C       0.051251   -0.008012   -0.025779
C       1.010915   -0.739196   -0.924065
C       2.369403    0.002003   -1.013952
H      -0.473491    1.809926    0.991328
H      -0.634260    1.890328   -0.761402
H       1.397233    3.196483   -0.002245
H       2.983106    2.174331   -1.655297
H       3.248276    2.041713    1.235709
H       3.363337   -0.598981    0.942614
H       0.938525   -1.638065    1.278766
H      -0.919164   -0.493869    0.040943
H       0.673339   -1.505442   -1.612239
H       3.127459   -0.481019   -1.628948
