24

C       0.447629    1.526148   -0.619864
C      -0.030238    0.225954   -0.009398
C       0.895633   -0.959286    0.131229
C       0.387037   -0.248214    1.365592
C       1.332355    0.529593    2.262946
C       2.051467   -0.362965    3.259220
C       2.597875    0.178056    4.536652
N       1.492590   -0.773591    4.552074
C       0.193379   -0.282669    4.983683
H       1.495096    1.732372   -0.382082
H       0.364337    1.492357   -1.711848
H      -0.146396    2.377723   -0.268717
H      -1.056030   -0.020522   -0.273381
H       0.525723   -1.952755   -0.097709
H       1.937795   -0.804870   -0.135020
H      -0.385958   -0.778785    1.916433
H       2.096550    1.031449    1.657736
H       0.790408    1.327527    2.783110
H       2.603409   -1.171567    2.779944
H       3.544423   -0.173004    4.940754
H       2.370202    1.220677    4.762170
H      -0.015685    0.767863    4.726472
H      -0.596164   -0.905780    4.550584
H       0.132944   -0.373962    6.073242
