17

O       0.097231    1.346304   -0.215303
C       0.134730   -0.006263    0.205128
C      -1.245781   -0.623235    0.187182
N      -1.946432   -1.096075   -1.025736
C      -0.937943   -1.789863   -1.912706
C      -0.581755   -2.833742   -0.829480
C      -1.546703   -2.075663    0.092300
C      -2.499119   -2.717560    0.949196
N      -3.238410   -3.260620    1.654391
H      -0.303619    1.376451   -1.090634
H       0.855977   -0.592392   -0.379111
H       0.496937    0.008728    1.238240
H      -1.948232   -0.073817    0.810678
H      -1.459344   -2.212965   -2.771624
H      -0.135470   -1.140749   -2.273733
H      -0.946996   -3.831655   -1.072179
H       0.453567   -2.908478   -0.489720
