14

O       0.073523    1.511121   -0.022929
C       0.085436    0.128477   -0.049601
C       0.015013   -0.634178    1.308177
O      -1.380689   -0.140882    1.449312
C      -1.278172   -0.620965    0.045654
C      -0.548628   -1.889601    0.578742
C       0.283143   -2.701568   -0.281739
C       0.969241   -3.388094   -0.991567
H      -0.581091    1.749207    0.650077
H       0.806497   -0.213559   -0.791754
H       0.657778   -0.585858    2.187137
H      -2.171712   -0.556949   -0.575264
H      -1.193565   -2.478761    1.233178
H       1.575877   -3.993684   -1.618776
