19

C       0.366084    1.618381    0.218857
C       0.145352    0.125004    0.035520
C       1.083289   -0.660622   -0.947927
O       2.202175    0.043355   -1.427931
C       1.427459   -1.664634    0.205702
O       2.758964   -1.548611    0.680546
C       2.779943   -0.478248    1.621917
O       1.486495   -0.351733    2.155799
C       0.564344   -0.838488    1.193425
H       1.411436    1.852744    0.427954
H       0.082954    2.161398   -0.687866
H      -0.238458    1.998501    1.048143
H      -0.901815   -0.064322   -0.225079
H       0.544586   -1.117507   -1.787226
H       2.977699   -0.408964   -1.069678
H       1.206544   -2.719330    0.037638
H       3.478202   -0.731599    2.425508
H       3.092652    0.449663    1.119438
H      -0.246465   -1.329457    1.734292
