17

C      -0.095673    1.589605   -0.139325
C      -0.049177    0.063382   -0.034062
C       0.959327   -0.560418   -1.087340
N       2.307165   -0.577488   -0.437422
C       2.008462   -0.570927    0.787149
O       2.632358   -0.206568    1.949155
C       1.308187    0.241662    2.455892
C       0.603067   -0.474782    1.261892
H       0.904932    2.026579   -0.053462
H      -0.503972    1.892596   -1.108514
H      -0.727671    2.026368    0.640656
H      -1.056709   -0.340099   -0.171568
H       0.656263   -1.573018   -1.384219
H       1.015188    0.044741   -1.997087
H       1.118295   -0.165118    3.450008
H       1.269713    1.332895    2.459736
H       0.168991   -1.425049    1.582463
