24

C      -0.114601    1.588475   -0.008231
C       0.051032    0.066025   -0.018359
N       0.754154   -0.432654   -1.201285
C       2.197481   -0.252609   -1.245380
C       0.001701   -0.892590   -2.255252
O      -1.217954   -0.953178   -2.192087
C       0.738875   -1.382149   -3.510243
C       1.021763   -2.890146   -3.360646
C      -0.112701   -1.099825   -4.753753
H       0.852003    2.102394   -0.039157
H      -0.705428    1.912442   -0.869698
H      -0.633413    1.907358    0.901463
H       0.604176   -0.262208    0.869938
H      -0.927450   -0.414282   -0.009387
H       2.695429   -1.105081   -1.711394
H       2.502291    0.659043   -1.776853
H       2.570526   -0.179004   -0.220449
H       1.692393   -0.856770   -3.618680
H       0.081862   -3.435131   -3.229360
H       1.521387   -3.277898   -4.253850
H       1.657458   -3.106602   -2.495799
H      -0.263553   -0.025621   -4.897191
H       0.377227   -1.498087   -5.647960
H      -1.097019   -1.561026   -4.650558
