16

N       0.043840    1.375625    0.092897
C      -0.027264    0.016495   -0.017850
C      -1.191086   -0.679507   -0.000979
C      -1.219940   -2.124496   -0.000492
O      -2.240709   -2.784471    0.110401
C       0.111956   -2.853586   -0.153770
N       0.210235   -4.122913   -0.105904
N       1.213064   -2.066478   -0.425432
C       1.309942   -0.676977   -0.050239
H       0.871408    1.850715   -0.228026
H      -0.810151    1.905269    0.022790
H      -2.147805   -0.168779    0.055064
H      -0.733511   -4.494755    0.026757
H       2.079768   -2.585993   -0.431308
H       1.962043   -0.157009   -0.766908
H       1.773764   -0.537697    0.942522
