18

C       0.034330    1.412358    0.064786
C       1.441045    0.887587    0.148695
C       0.281144   -0.080379    0.049834
N      -0.061297   -0.799212    1.226662
C      -0.434544   -2.008043    1.173928
C      -0.839458   -2.882577    2.358091
N      -1.165883   -4.209278    1.811210
C      -0.995598   -4.111767    0.551024
N      -0.589806   -2.872123    0.078114
H      -0.408320    1.811040    0.969613
H      -0.293057    1.883937   -0.855061
H       2.091012    0.993628   -0.712804
H       1.939596    0.936041    1.109261
H       0.152442   -0.566375   -0.919643
H      -0.030688   -2.959124    3.092811
H      -1.705854   -2.462718    2.881096
H      -1.152604   -4.923775   -0.152360
H      -0.350831   -2.665830   -0.875057
