17

C       0.021806    1.417534    0.017490
N      -0.113680   -0.030940   -0.063942
C       0.568230   -0.696558   -1.060225
N       1.154963   -0.052604   -2.049215
O       1.665044   -1.053661   -2.887587
C       1.376762   -2.249886   -2.357592
C       0.684206   -2.119294   -1.201323
C       0.143076   -3.185044   -0.308835
O       0.535245   -4.442241   -0.832065
H       1.058608    1.744722    0.176091
H      -0.325821    1.862547   -0.917687
H      -0.602443    1.783917    0.835470
H      -0.087792   -0.502074    0.828185
H       1.716846   -3.114937   -2.903450
H       0.523815   -3.047731    0.719824
H      -0.955207   -3.098319   -0.248856
H       0.137749   -5.130766   -0.291704
