21

C      -0.472139    1.455941    0.040373
C       0.136964    0.060271   -0.046131
C       1.231418   -0.116116   -1.105730
O       1.871548   -1.336779   -0.761586
C       1.859427   -1.447092    0.650182
C       2.040625   -2.825979    1.207084
C       3.142853   -1.790760    1.344782
C       0.885128   -0.420517    1.222594
O       1.638171    0.616051    1.846661
H       0.295009    2.205792    0.255723
H      -0.953232    1.732317   -0.903227
H      -1.237798    1.512455    0.822764
H      -0.649985   -0.675177   -0.255639
H       0.849932   -0.210841   -2.126087
H       1.939527    0.727251   -1.069499
H       1.477572   -3.110529    2.090166
H       2.188647   -3.620776    0.484282
H       4.015089   -1.907493    0.711789
H       3.329223   -1.345194    2.314698
H       0.199520   -0.876004    1.949516
H       1.016599    1.213142    2.275149
