17

O       0.036102    0.352588    1.021508
C       0.049918    1.227890    0.201882
C      -1.292751    1.897419   -0.159444
O      -1.427150    2.803278   -1.221939
C      -0.479976    3.860304   -1.220122
C       0.729237    3.430604   -2.014338
C       2.142654    3.622054   -1.507862
C       1.509904    2.262108   -1.497270
O       1.253081    1.700177   -0.227511
H      -1.995255    1.082082   -0.346146
H      -1.595821    2.368196    0.791643
H      -0.966554    4.723591   -1.683636
H      -0.207525    4.141047   -0.192711
H       0.581860    3.442710   -3.090233
H       2.935545    3.825516   -2.218081
H       2.263595    4.096277   -0.539675
H       1.859217    1.510538   -2.198299
