17

O       0.289674    1.344896   -0.311092
C       0.086191   -0.000031   -0.028003
C       0.173170   -0.449063    1.513735
C      -1.350670   -0.504423    1.463817
C      -2.821535   -0.976506    1.586100
C      -2.700904    0.085361    0.415602
O      -1.867793    0.905351    1.300526
C      -1.393137   -0.619983   -0.062380
O      -1.462987   -1.897834   -0.625410
H      -0.380583    1.809466    0.210009
H       0.751116   -0.578157   -0.674434
H       0.630885   -1.435839    1.612158
H       0.627514    0.255316    2.214041
H      -3.021756   -2.011006    1.306674
H      -3.389429   -0.636344    2.453404
H      -3.513322    0.586244   -0.119080
H      -1.444817   -1.802728   -1.583765
