17

C       1.084324    1.585968   -1.850257
O       1.181497    0.165317   -1.995681
C       0.587294   -0.555485   -1.050188
N      -0.033550   -0.038405   -0.069515
N       0.735603   -1.937722   -1.277420
C       1.377479   -2.624091   -2.289460
O       1.967880   -2.135273   -3.226599
C       1.294784   -4.151076   -2.150127
O       1.965228   -4.760906   -3.207572
H       0.038653    1.902888   -1.858682
H       1.541750    1.908754   -0.911886
H       1.621157    1.997143   -2.704953
H      -0.427099   -0.734376    0.557859
H       0.293827   -2.510726   -0.574488
H       1.730440   -4.441609   -1.179525
H       0.232612   -4.446850   -2.126131
H       2.302052   -4.023599   -3.744765
