16

C      -0.339355    1.166920   -0.069656
C       1.131786    1.036898    0.280284
C       0.318475   -0.176556   -0.016373
O       0.053387   -1.005878    1.102986
C      -0.942018   -1.867926    0.941861
N      -1.682471   -2.098289   -0.094530
C      -2.527235   -3.121364    0.342100
C      -2.235747   -3.437562    1.619857
O      -1.196168   -2.621988    2.026096
H      -1.018173    1.413737    0.738298
H      -0.622892    1.556648   -1.040430
H       1.878881    1.340425   -0.443844
H       1.408902    1.196118    1.315957
H       0.468984   -0.738426   -0.931022
H      -3.278841   -3.544662   -0.304982
H      -2.606168   -4.135188    2.349394
