11

O       0.098608   -0.015130    0.147258
C       0.268519    1.121493   -0.139972
O       0.447601    2.091133    0.828356
C       0.726959    3.340698    0.408647
C       1.739117    3.917904   -0.281076
N       1.475273    5.279944   -0.383664
C       0.355270    5.439026    0.237632
O      -0.177136    4.298267    0.749424
H       0.315496    1.551546   -1.154839
H       2.628243    3.465361   -0.687875
H      -0.200997    6.347098    0.406380
