16

C      -0.050900    1.563048    0.006768
C       0.081092    0.058595    0.112303
N       1.241459   -0.735919   -0.243954
C       2.473868    0.054919    0.111308
C       2.054066    0.081124    1.593325
O       2.590943    0.386644    2.613664
C       0.785182   -0.660171    1.242772
C       0.157278   -1.804653    1.941056
O       0.228902   -2.001509    3.126248
H       0.794900    2.110609    0.424323
H      -0.168812    1.852637   -1.042781
H      -0.948430    1.882337    0.544297
H      -0.826617   -0.463270   -0.192294
H       3.363401   -0.563326   -0.034736
H       2.593428    0.999942   -0.422655
H      -0.397679   -2.485405    1.255609
