13

C      -0.028201    1.529669   -0.086397
C      -0.021318    0.029611    0.078910
O      -0.033370   -0.557740    1.125076
N       0.001892   -0.692235   -1.148115
N       0.016221   -0.044126   -2.377867
C       0.034988   -1.003008   -3.224929
O       0.034966   -2.245782   -2.699928
C       0.013061   -2.083038   -1.303905
O       0.007057   -2.980016   -0.527597
H       0.855184    1.862699   -0.637600
H      -0.900319    1.851693   -0.661617
H      -0.044726    1.973571    0.908146
H       0.050413   -0.900356   -4.298501
