19

C      -0.113424    0.709452   -2.117515
C       0.071240   -0.414457   -1.120856
C       1.350673   -0.620649   -0.335780
C       2.559770    0.278614   -0.477251
C       0.114149   -0.095724    0.355118
O       0.014935    1.241065    0.867867
C      -0.758549    0.809193    2.014828
C      -0.675906   -0.640293    1.499468
O      -1.065461   -1.714129    1.852325
H       0.302470    1.649832   -1.750965
H       0.366096    0.468175   -3.071978
H      -1.177923    0.876315   -2.309664
H      -0.470833   -1.327418   -1.356731
H       1.578195   -1.657640   -0.099428
H       2.277975    1.331413   -0.539266
H       3.219581    0.167866    0.388951
H       3.135402    0.021561   -1.372643
H      -0.247044    1.001776    2.964560
H      -1.763253    1.246130    2.034080
