15

C      -0.010898   -1.197401    0.108030
C       0.036184    0.002378    0.049897
C       0.052544    1.429331   -0.071188
C      -0.870588    2.097577   -1.092115
O      -0.394206    3.432251   -1.209285
C       1.021049    3.405715   -1.038268
C       1.271926    2.298520   -0.031001
N       0.372908    2.244411    1.120415
H      -0.043537   -2.256631    0.176093
H      -0.811856    1.553869   -2.047201
H      -1.917149    2.143931   -0.776223
H       1.542147    3.181352   -1.982625
H       1.328147    4.399869   -0.697431
H       2.270751    1.901247    0.111973
H      -0.227586    3.069261    1.128569
