20

C      -0.437121    1.485024   -0.139348
C       0.176252    0.095140    0.071348
C       0.843466   -0.461189   -1.168584
C       0.010832   -1.011144   -2.317398
C       0.902239   -1.931992   -1.540241
C       2.277711   -2.164648   -2.128823
O       2.850108   -0.858784   -2.323342
C       2.159125    0.089002   -1.611404
N       2.597590    1.250128   -1.370566
H       0.334601    2.196732   -0.439238
H      -1.204397    1.460231   -0.920717
H      -0.906812    1.843259    0.781994
H       0.913787    0.138366    0.880990
H      -0.600963   -0.610050    0.391559
H      -1.056204   -1.079156   -2.134981
H       0.281421   -0.753258   -3.336598
H       0.473674   -2.691768   -0.897842
H       2.917651   -2.734990   -1.444266
H       2.266323   -2.669281   -3.100371
H       3.542753    1.358543   -1.741546
