21

C      -0.878928    1.153577   -0.048475
C       0.080015   -0.020945   -0.160425
C       1.463548    0.177974   -0.834299
C       2.063205   -0.815966    0.186839
O       3.358772   -0.631295    0.683743
C       0.813859   -0.569974    1.127634
C       1.104369    0.495755    2.195028
C       0.226253   -1.752764    1.729273
C      -0.264025   -2.742076    2.208416
H      -0.404094    2.028840    0.406101
H      -1.236231    1.451503   -1.040302
H      -1.755393    0.893985    0.555013
H      -0.433829   -0.864005   -0.631686
H       1.561988   -0.062202   -1.895021
H       1.845902    1.193210   -0.673966
H       2.032467   -1.839923   -0.192561
H       3.459125    0.292310    0.935876
H       1.515220    1.411709    1.756473
H       0.192696    0.767143    2.733196
H       1.825524    0.109342    2.920210
H      -0.691692   -3.615966    2.633441
