23

C       0.735805    1.078646   -0.251959
C       0.186944   -0.329033   -0.008578
C      -1.340678   -0.370514    0.100087
O      -1.840030    0.081474   -1.152259
C      -3.193894    0.468937   -1.171157
C      -1.843241   -1.772022    0.447108
C      -1.402027   -2.391057    1.793850
O      -2.761115   -2.718282    2.143083
C      -3.267730   -1.973121    1.019192
H       1.824908    1.063578   -0.355344
H       0.308636    1.503798   -1.163020
H       0.489444    1.747580    0.580463
H       0.486280   -0.994836   -0.827534
H       0.616703   -0.744357    0.910433
H      -1.665443    0.328783    0.893199
H      -3.425099    1.185257   -0.367517
H      -3.374454    0.954175   -2.134164
H      -3.883155   -0.383485   -1.082486
H      -1.642275   -2.435141   -0.398828
H      -0.759226   -3.277187    1.749465
H      -0.964114   -1.671112    2.500996
H      -3.764149   -1.046676    1.340972
H      -3.969038   -2.561347    0.416150
