16

N       0.117064   -1.167736   -0.002408
C       0.068901   -0.013526   -0.017454
C      -0.015943    1.434202   -0.014065
C      -0.285785    2.160339    1.365963
N       0.803894    3.108623    1.010724
C       2.008085    3.504984    1.753591
C       3.090855    3.235623    0.649880
N       2.514127    2.183025   -0.241695
C       1.282211    2.238153    0.033873
H      -0.699961    1.777201   -0.793972
H      -1.267719    2.618449    1.492887
H      -0.047442    1.513589    2.217854
H       1.975074    4.545695    2.081844
H       2.159166    2.858448    2.630635
H       3.287218    4.143332    0.066757
H       4.040225    2.891052    1.064877
