18

C      -0.041450    1.497170   -0.281256
C      -0.085659    0.030116    0.060940
O       1.137353   -0.709413   -0.018094
C       0.512958   -0.584290    1.260996
C       1.261913    0.188951    2.315812
N       0.448014    0.557456    3.507756
C       1.463523    0.056475    4.470201
C       2.187362   -0.594926    3.280438
O       3.060759   -1.395036    3.151767
H       0.810718    2.001840    0.178771
H       0.039524    1.626891   -1.365409
H      -0.962401    1.991434    0.046598
H      -0.938210   -0.502491   -0.366021
H       0.053910   -1.501235    1.633523
H       1.821001    1.015568    1.856234
H       0.247014    1.547026    3.584474
H       2.084925    0.822419    4.955671
H       1.075323   -0.620094    5.239041
