14

O      -0.053270    1.466628   -0.149542
C       0.050611    0.053226   -0.065185
C      -1.360438   -0.536684   -0.051550
O      -2.094503   -0.094755   -1.154149
C      -1.527204   -2.034176    0.258294
O      -2.085816   -1.712483    1.578203
C      -2.022847   -0.366470    1.338957
O      -2.342369    0.531347    2.053993
H      -0.460677    1.778646    0.669421
H       0.578197   -0.273626   -0.967079
H       0.624895   -0.271312    0.813774
H      -1.813872    0.819536   -1.306725
H      -2.265650   -2.533277   -0.369949
H      -0.618772   -2.631064    0.360491
