17

O       0.007050    0.004963    0.105984
C       0.010463    1.207626   -0.006467
N      -1.099871    2.040336   -0.078170
C      -0.645591    3.439842    0.029792
C       0.620734    3.346212   -0.847648
C       1.213746    2.181543   -0.026333
C       1.167930    2.755634    1.407853
N       1.277250    4.231027    1.501174
C      -0.055238    3.591755    1.448754
H      -1.976416    1.720407    0.306383
H      -1.413595    4.150286   -0.274541
H       0.375732    3.061246   -1.871583
H       1.229984    4.246117   -0.827424
H       2.148358    1.728150   -0.348635
H       1.479837    2.138763    2.242509
H       1.486268    4.479094    2.465797
H      -0.712596    3.626123    2.310943
