21

C      -0.022387    1.474975   -0.281532
C      -0.045720    0.013091    0.187350
C      -1.388082   -0.621353   -0.000057
O      -2.495176   -0.073250    0.752430
C      -2.955639   -1.426255    1.092310
C      -4.447552   -1.642362    0.931257
C      -1.951714   -2.041152    0.123231
C      -1.964218   -1.285592   -1.201197
O      -3.108607   -0.803965   -1.836245
H       0.959602    1.924817   -0.108957
H      -0.247487    1.548924   -1.350289
H      -0.766809    2.064101    0.261716
H       0.693622   -0.576029   -0.368133
H       0.233761   -0.042640    1.246873
H      -2.657717   -1.623786    2.130441
H      -5.002519   -0.933437    1.554808
H      -4.759168   -1.532465   -0.108269
H      -4.706713   -2.653706    1.263102
H      -1.447083   -2.990005    0.255729
H      -1.240281   -1.669315   -1.915564
H      -3.432171   -0.086869   -1.273433
