17

O      -0.117903    0.130243   -0.889274
C      -0.045207    1.208341   -0.362243
C       1.232542    1.972476   -0.114699
O       2.446831    1.277827   -0.417688
C       2.927363    2.357499   -1.258214
C       3.043608    1.974595   -2.726003
C       1.576569    1.975839   -3.181351
O       0.933963    3.002291   -2.401796
C       1.569748    3.094027   -1.152370
H      -0.951633    1.754371   -0.011710
H       1.219393    2.348461    0.921237
H       3.815947    2.833026   -0.833950
H       3.623014    2.737727   -3.256224
H       3.530276    1.005747   -2.857364
H       1.438792    2.236353   -4.232912
H       1.108791    1.005549   -2.984701
H       1.512858    4.123581   -0.797777
