16

O       0.139017    1.346274    0.507484
C      -0.015851    0.060875   -0.071898
C      -1.434860   -0.421831   -0.014337
C      -2.113659   -1.016370    1.214756
N      -3.567860   -0.738094    1.087267
C      -3.410775   -1.210301   -0.337286
C      -2.016452   -1.882808    0.005911
C      -2.560755   -0.072258   -0.934449
O      -2.643889    0.632146   -1.902150
H      -0.375153    1.965234   -0.022256
H       0.327565    0.047897   -1.116964
H       0.638051   -0.609659    0.496308
H      -1.591985   -1.054524    2.162984
H      -4.052015   -1.478795    1.595127
H      -4.267205   -1.639951   -0.848407
H      -1.510096   -2.794034   -0.281493
