18

C      -0.045441    1.503896    0.009023
C       0.017170   -0.007962   -0.001491
C      -0.814651   -0.779584    1.013704
C       0.685094   -0.744864    1.150330
N       1.470378   -1.902170    0.841435
C       1.385370   -2.492750   -0.379130
C       0.767578   -1.936551   -1.451788
C       0.145584   -0.625404   -1.381269
O      -0.238121   -0.005865   -2.362836
H       0.873272    1.939548   -0.396380
H      -0.873767    1.842852   -0.617491
H      -0.189852    1.886570    1.024195
H      -1.398706   -0.198833    1.719116
H      -1.272097   -1.709047    0.693447
H       1.112760   -0.145113    1.947477
H       1.793059   -2.459017    1.615617
H       1.887767   -3.452695   -0.453854
H       0.799062   -2.428486   -2.414905
