16

O      -0.038785    1.390244    0.071767
C       0.027493   -0.005652   -0.008330
C      -0.476949   -0.674693   -1.278374
C      -1.293795   -0.732140   -0.002683
N      -1.384329   -1.921826    0.777679
C      -0.335144   -2.562518    1.395219
O      -0.471592   -3.645213    1.940317
C       0.950816   -1.823928    1.383809
C       1.111125   -0.647258    0.770452
H       0.580188    1.756413   -0.570089
H      -0.839851   -0.011070   -2.055918
H       0.022045   -1.577736   -1.611043
H      -2.177864   -0.105480    0.037789
H      -2.252214   -2.436770    0.780460
H       1.748393   -2.301572    1.940160
H       2.049896   -0.102145    0.837830
