22

C      -0.685601    0.708695    0.565425
N       0.647783    0.374626    0.067192
C       1.380166   -0.522019    0.934971
C       0.878800   -1.968074    0.929999
O       0.123142   -2.419591    0.102969
O       1.423580   -2.671920    1.936287
C       1.097746   -4.088606    2.016354
C       2.276778   -4.753896    2.710272
C      -0.224025   -4.264731    2.755684
H      -0.590855    1.276432    1.498266
H      -1.189157    1.351512   -0.162182
H      -1.330320   -0.163615    0.756600
H       0.553019   -0.071710   -0.839948
H       2.436655   -0.554665    0.635888
H       1.368609   -0.145850    1.963379
H       0.994246   -4.455756    0.991421
H       2.404148   -4.359705    3.723332
H       2.110880   -5.833046    2.779347
H       3.202685   -4.581826    2.154984
H      -0.466710   -5.328531    2.841617
H      -0.160572   -3.843561    3.764127
H      -1.033984   -3.771639    2.213917
