21

C      -0.022189   -3.011830    0.380566
C       0.588557   -2.323508    1.617633
N       0.889048   -0.902469    1.455731
C       2.249043   -0.536821    1.138426
C       2.821359   -0.977732   -0.200529
C       2.670062    0.805877    1.682712
C       3.180890   -0.461473    2.326172
C      -0.316813   -2.507375    2.774493
N      -1.036341   -2.659300    3.665907
H       0.667938   -2.947711   -0.463414
H      -0.236605   -4.065058    0.583004
H      -0.962274   -2.525669    0.101587
H       1.527889   -2.825087    1.877360
H       0.219413   -0.454796    0.840332
H       2.206411   -0.609000   -1.030203
H       3.835560   -0.591423   -0.340570
H       2.874893   -2.069649   -0.280074
H       3.359716    1.400341    1.093476
H       1.924060    1.372308    2.226881
H       2.774474   -0.724911    3.295352
H       4.219840   -0.733715    2.176128
