19

C       0.044227    1.354979    0.099333
O      -0.087002   -0.040398   -0.080061
C      -1.380514   -0.523077   -0.023670
C      -2.564277   -0.017632   -0.897290
C      -3.431621   -0.753055    0.152552
C      -2.986829   -2.235954    0.165177
C      -2.125657   -2.089497    1.401221
C      -1.475066   -2.063078    0.036533
C      -2.324678   -0.551291    1.257387
H       1.114268    1.574235    0.109682
H      -0.425092    1.920943   -0.716965
H      -0.395232    1.685307    1.051368
H      -2.695381    1.067185   -0.827549
H      -2.616066   -0.335988   -1.943036
H      -4.481034   -0.511547    0.309815
H      -3.511073   -3.107792   -0.204177
H      -1.974776   -2.747961    2.245698
H      -0.821403   -2.783678   -0.436104
H      -2.359886    0.205215    2.036947
