18

C       0.372158    1.569826    0.437028
C       1.557886    1.543910   -0.569384
C       1.384789    0.002634   -0.714262
C       2.268105   -0.854308    0.168763
O       2.398107   -0.353458    1.510758
C       1.480522   -1.429302    1.273846
C       0.033382   -0.983651    1.172164
C       0.028261    0.094878    0.067546
H       0.701021    1.675958    1.471953
H      -0.412165    2.304398    0.236853
H       1.339844    2.073983   -1.499841
H       2.524127    1.883703   -0.191326
H       1.361590   -0.394885   -1.732835
H       3.161715   -1.332187   -0.226987
H       1.739119   -2.369607    1.756748
H      -0.587404   -1.844320    0.894370
H      -0.345072   -0.604855    2.128294
H      -0.858825    0.023908   -0.565165
