17

C       0.013657    1.481612    0.024832
C      -0.006004   -0.022482   -0.008893
N      -0.131232   -0.617485   -1.193112
C      -0.114832   -1.959633   -1.188714
C       0.005361   -2.717637   -0.040306
N      -0.020115   -4.125873    0.009099
C       0.092983   -1.979941    1.163130
N       0.220999   -2.650909    2.362357
N       0.098495   -0.652542    1.172817
H       0.970615    1.843209    0.416428
H      -0.137661    1.881574   -0.978054
H      -0.766166    1.860922    0.692763
H      -0.205033   -2.450740   -2.157829
H      -0.035002   -4.544097   -0.913514
H       0.764506   -4.504807    0.530292
H      -0.269947   -3.533814    2.406947
H       0.077454   -2.056941    3.167124
