18

C      -0.034031    1.563166    0.017868
C       1.505278    1.761604    0.000221
C       1.961933    0.896969    1.196410
C       0.987795   -0.274504    1.199204
C       2.380817   -0.443409    0.653608
N       2.362030   -0.431289   -0.808769
C       1.912247    0.911177   -1.227137
C       0.959060   -0.235095   -1.224389
C       0.051560    0.013434    0.004403
H      -0.512776    1.963430    0.917978
H      -0.529351    1.972940   -0.869100
H       1.873225    2.786853   -0.002311
H       2.375861    1.329558    2.098915
H       0.640082   -0.757851    2.103891
H       3.131923   -1.066866    1.123058
H       2.368080    1.348191   -2.109450
H       0.610440   -0.765491   -2.104381
H      -0.889390   -0.535326    0.005637
