18

C      -0.101149    1.543560    0.006653
C       0.002695    0.047579    0.025176
C      -0.091154   -0.866183   -1.179576
C       0.956968   -1.958286   -1.082166
C       1.747701   -1.786466    0.157989
C       0.855062   -0.835766    0.985604
C      -0.238004   -1.935232    0.891599
C      -1.071969   -1.038122   -0.036675
N       0.678762   -2.850785    0.079692
H       0.855455    2.004248   -0.267794
H      -0.849987    1.876725   -0.719781
H      -0.391740    1.938355    0.986817
H      -0.429446   -0.480831   -2.132832
H       1.353199   -2.450085   -1.962186
H       2.796353   -2.027763    0.296270
H       1.196966   -0.427099    1.933252
H      -0.685574   -2.415706    1.757993
H      -2.148888   -0.968825   -0.134216
