21

C       0.332654    0.971815   -0.311550
O      -0.370272    0.039304    0.483774
C       0.443751   -0.639504    1.377323
C       0.036293   -2.017995    1.789962
C      -0.973947   -2.744244    0.898899
C      -0.245079   -2.902704   -0.417226
C       0.997510   -2.420524   -0.362374
C       1.322058   -1.822997    0.967318
C       2.715196   -1.958441    1.536418
H       1.080501    0.475880   -0.945958
H      -0.401257    1.473072   -0.947006
H       0.843314    1.726119    0.306486
H       0.873246   -0.000668    2.153952
H       0.079631   -2.267281    2.844585
H      -1.261318   -3.713824    1.325461
H      -1.897298   -2.164191    0.778821
H      -0.715210   -3.330896   -1.295448
H       1.710972   -2.422319   -1.179839
H       3.458995   -1.480287    0.887605
H       2.789396   -1.488853    2.522639
H       3.000398   -3.010920    1.647759
