16

N       0.262687    0.718389    0.777418
C      -0.030004   -0.036973   -0.316916
O       0.603506    0.015886   -1.352045
C      -1.238746   -0.947578   -0.190639
C      -1.133863   -2.413538    0.033739
C       0.026087   -2.739435    0.987659
C      -0.702947   -1.875636    2.048944
O      -0.538226   -1.703694    3.224356
C      -1.814929   -1.508849    1.105328
H       1.071436    1.317424    0.737908
H      -0.250143    0.650288    1.639076
H      -2.009855   -0.671286   -0.905423
H      -1.630020   -3.130955   -0.605383
H       0.047975   -3.782757    1.314936
H       1.029216   -2.438335    0.675580
H      -2.857918   -1.371763    1.364025
