15

C      -0.015779    1.491628    0.089050
C       0.013609    0.006569   -0.010673
C       0.012018   -0.798196   -1.123344
O       0.045243   -2.078023   -0.716796
N       0.069210   -2.042146    0.729611
N       0.048988   -0.833116    1.073909
N      -0.017233   -0.444018   -2.440722
C      -0.013042   -1.366398   -3.340593
N      -0.041176   -1.066805   -4.653525
H       0.867593    1.876436    0.609598
H      -0.041372    1.923586   -0.913788
H      -0.896784    1.839561    0.638748
H       0.012899   -2.435555   -3.116618
H      -0.037508   -1.785381   -5.353436
H      -0.065768   -0.101798   -4.940494
