16

N      -0.073080    1.339368    0.149085
C       0.039292   -0.045989    0.047375
N      -1.053944   -0.814453    0.027414
N      -0.540072   -2.065604    0.007786
C      -1.111280   -3.341808   -0.015751
C      -0.133736   -4.258782   -0.039823
C       1.222224   -3.559861   -0.031002
C       0.818940   -2.111912    0.000824
C       1.249067   -0.803498    0.028425
H       0.611982    1.839664   -0.400656
H      -1.008654    1.654146   -0.074042
H      -2.185143   -3.447268   -0.011974
H      -0.265191   -5.329305   -0.059524
H       1.825475   -3.846804    0.839335
H       1.817819   -3.809371   -0.917998
H       2.258664   -0.427230    0.048477
