18

O       0.024732    1.456718    0.642320
C      -0.029936    0.147093    0.068885
C       0.888844   -0.812089    0.786283
C       0.208899   -1.665148    1.553929
C      -1.285084   -1.492213    1.428308
C      -1.418772   -0.550521    0.204632
C      -2.585313    0.448851    0.262545
C      -3.882105   -0.214816    0.378619
N      -4.898335   -0.757362    0.473218
H       0.162234    1.350612    1.590320
H       0.226916    0.300757   -0.984115
H       1.967830   -0.728819    0.725103
H       0.654135   -2.403488    2.212277
H      -1.812467   -2.439363    1.276993
H      -1.709582   -1.055441    2.343572
H      -1.546410   -1.178583   -0.683362
H      -2.454664    1.130444    1.108652
H      -2.590988    1.076681   -0.635287
