23

C      -0.179211    1.458568   -0.046350
C       0.014078   -0.056376   -0.005568
C       0.778815   -0.487556    1.255683
O      -1.296341   -0.623409   -0.001290
C       0.748121   -0.522579   -1.271429
O       0.748548   -1.940818   -1.286735
C       1.452974   -2.503027   -2.381201
C       1.218490   -4.003933   -2.354093
O      -0.143440   -4.328567   -2.551374
H       0.783143    1.978556   -0.073347
H      -0.761857    1.746703   -0.925876
H      -0.723512    1.786527    0.843413
H       0.198965   -0.226827    2.144920
H       0.946105   -1.568169    1.250406
H       1.754576    0.006011    1.318937
H      -1.178370   -1.569415   -0.143268
H       0.231152   -0.138470   -2.164131
H       1.781405   -0.141359   -1.281301
H       1.079462   -2.084748   -3.328893
H       2.528655   -2.275901   -2.304311
H       1.780795   -4.475562   -3.166517
H       1.597835   -4.408269   -1.401979
H      -0.640787   -3.795025   -1.922159
