21

O       0.044114    1.414989   -0.121302
C       0.093069    0.000606    0.000132
C       0.844496   -0.433896    1.275322
C      -0.021245   -0.220881    2.532891
C      -1.462608   -0.686498    2.280046
C      -1.557892   -2.160659    1.824154
C      -1.446848   -2.064134    0.277434
C      -1.345264   -0.546586    0.025089
O      -1.992570    0.048773    1.161964
H      -0.682031    1.698799    0.449395
H       0.621530   -0.365955   -0.887599
H       1.122227   -1.491045    1.187482
H       1.777319    0.132908    1.344551
H       0.405326   -0.748378    3.393602
H      -0.048478    0.843394    2.793312
H      -2.102477   -0.465811    3.138227
H      -0.774868   -2.779474    2.269481
H      -2.520208   -2.585832    2.117628
H      -0.584135   -2.604605   -0.121411
H      -2.338204   -2.469651   -0.206069
H      -1.882714   -0.209647   -0.864778
