17

N       0.179761    1.257885    0.464530
C       0.019960    0.019040   -0.119381
C       1.308699   -0.771373   -0.199961
O       1.406582   -1.873593   -0.658854
N      -1.060648   -0.516896   -0.534260
C      -2.285478    0.252147   -0.440154
C      -3.440625   -0.501454   -1.115240
C      -4.776655    0.147312   -0.845311
O      -5.546759    0.531671   -1.687146
H       1.109297    1.643723    0.519103
H      -0.554413    1.939823    0.367627
H       2.195027   -0.231486    0.212784
H      -2.536868    0.443333    0.617653
H      -2.178936    1.244714   -0.913971
H      -3.282013   -0.578219   -2.193274
H      -3.462810   -1.517089   -0.697786
H      -5.019978    0.255745    0.239764
