19

O       0.062205    1.434764   -0.142361
C       0.038542    0.045918    0.171385
C      -1.368204   -0.521966    0.114835
C      -1.985393   -0.879066   -1.274351
O      -1.026830   -2.007665   -1.384378
C      -1.555444   -2.064332    0.005723
C      -2.958627   -1.828020   -0.565940
C      -4.324306   -1.700529    0.012601
C      -4.013065   -2.744724   -1.059975
H      -0.119855    1.522376   -1.083045
H       0.699538   -0.533200   -0.483847
H       0.423354   -0.030053    1.194369
H      -2.044297   -0.008360    0.804485
H      -2.139222   -0.258632   -2.159162
H      -1.187646   -2.861517    0.653139
H      -4.495863   -2.049447    1.026056
H      -4.932454   -0.847353   -0.270971
H      -4.415946   -2.584511   -2.054780
H      -3.978185   -3.786324   -0.757634
