19

C      -0.202333    1.620317   -0.110683
C      -0.031008    0.114942    0.011446
C       1.177655   -0.593398   -0.696406
C       2.185824   -0.165727    0.414160
C       2.549952   -1.563824    0.924427
O       2.389669   -1.544470    2.365331
C       1.171562   -0.786300    2.597304
C       0.831750   -0.478581    1.155094
C       1.158640   -1.770831    0.319969
H       0.745669    2.149324    0.029211
H      -0.590975    1.885438   -1.099952
H      -0.911120    1.999283    0.633664
H      -0.988869   -0.400796   -0.131321
H       1.371654   -0.657067   -1.767564
H       2.747311    0.764268    0.496857
H       3.451859   -2.127432    0.688204
H       0.436593   -1.414156    3.113730
H       1.395385    0.092529    3.212254
H       0.529406   -2.661200    0.295861
