21

C      -0.210011    1.610204    0.035146
C      -0.004119    0.092109    0.016101
C      -1.350991   -0.637937    0.049852
O       0.663577   -0.301281   -1.210035
C       1.947774   -0.806923   -0.885592
C       2.879402    0.304501   -0.306833
C       2.416639   -0.124659    1.087670
C       1.861472   -1.433495    0.532680
C       0.924090   -0.427668    1.116808
H       0.742333    2.143624    0.025591
H      -0.791452    1.925118   -0.836602
H      -0.757039    1.909122    0.935867
H      -1.931908   -0.388006   -0.842857
H      -1.197090   -1.720447    0.064856
H      -1.935690   -0.354281    0.931295
H       2.313616   -1.394900   -1.726511
H       3.934281    0.054087   -0.456677
H       2.697298    1.326097   -0.653144
H       2.958441    0.029191    2.013872
H       1.991904   -2.461838    0.840217
H       0.498866   -0.612478    2.097093
