17

C      -0.011810    1.579310    0.130846
C      -0.047408    0.044527    0.018930
C      -1.394946   -0.503967   -0.026679
C      -2.517738   -0.947532   -0.063704
C      -3.851191   -1.503043   -0.109773
O      -4.062479   -2.699100   -0.198455
C      -4.915732   -0.526900   -0.042282
C      -5.816662    0.274360    0.013081
C      -6.907745    1.230176    0.078455
H       1.023080    1.931607    0.160853
H      -0.510029    2.043027   -0.724450
H      -0.517449    1.914528    1.040102
H       0.494054   -0.278712   -0.879596
H       0.486694   -0.405801    0.865663
H      -7.554441    1.021902    0.937795
H      -6.538780    2.256828    0.170604
H      -7.528027    1.171048   -0.822617
