17

O      -0.353449    1.340617   -0.215220
C      -0.114647   -0.030460   -0.165090
C      -0.228461   -0.762801    1.167133
C      -1.286301   -0.907752    0.115829
O      -2.572575   -0.268970    0.275144
C      -3.221981   -1.359165   -0.417985
C      -3.226338   -1.219669   -1.949172
O      -1.952089   -1.907796   -2.054833
C      -1.882256   -2.091435   -0.629618
H      -1.313769    1.453710   -0.233514
H       0.636584   -0.364106   -0.875928
H       0.427196   -1.607276    1.356420
H      -0.485641   -0.162877    2.034005
H      -4.108863   -1.716264    0.104518
H      -4.018810   -1.775859   -2.464197
H      -3.188790   -0.189757   -2.319860
H      -1.613904   -3.106603   -0.334750
