18

C       0.060653   -1.177516    0.036783
C       0.027399    0.024602    0.034346
C       0.001262    1.458994    0.012337
C       0.405185    2.176078   -1.270768
C       1.279833    2.294861   -0.056123
C       1.084665    3.480894    0.888479
C      -0.308044    3.295126    1.496706
C      -1.516071    3.371825    0.635423
N      -0.934899    2.065651    0.970467
H       0.083778   -2.238703    0.047278
H       0.754549    1.533861   -2.071315
H      -0.164532    3.031040   -1.613431
H       2.246963    1.806117   -0.074435
H       1.837314    3.446023    1.681435
H       1.197054    4.446212    0.382224
H      -0.410348    3.462215    2.566081
H      -2.489471    3.551184    1.084321
H      -1.419152    3.766696   -0.370268
