19

C       1.131719   -0.025290    0.458701
C       0.045080   -0.079407   -0.616728
C      -1.365628   -0.312804   -0.101616
C      -2.457274   -0.260840   -1.151748
O      -2.477540    1.010845   -1.812056
C      -3.236308    1.981955   -1.253625
O      -3.273034    3.091207   -1.691179
C      -1.655709   -1.054949    1.134743
O      -1.733182    0.373881    1.106584
H       2.081358    0.292003    0.019808
H       0.862342    0.686371    1.243294
H       1.297547   -1.002085    0.923994
H       0.032864    0.861567   -1.178226
H       0.271410   -0.865248   -1.349285
H      -2.283607   -1.000107   -1.938484
H      -3.430117   -0.461700   -0.688999
H      -3.807962    1.628576   -0.376342
H      -2.607902   -1.572703    1.247612
H      -0.839205   -1.463615    1.724858
