14

O       0.008737    0.075797    0.047041
C      -0.008398    1.269278    0.099430
C      -1.068727    2.322192    0.036492
C      -0.477040    3.554800    0.648817
C       0.924055    3.256808    1.196871
C       1.121202    2.667907    2.506789
C       1.277794    2.167356    3.588058
C       1.038135    2.375112   -0.078271
N      -0.102161    3.222304   -0.745969
H      -2.116556    2.239351   -0.220627
H      -1.103087    4.409037    0.881528
H       1.537502    4.155224    1.072426
H       1.415102    1.720876    4.542081
H       1.982004    2.206603   -0.588904
