15

O      -0.209253    1.382562   -0.177732
C      -0.057134   -0.018350   -0.062510
C       0.658378   -0.595787   -1.208717
C       1.264668   -1.064402   -2.133977
C       0.663724   -0.405804    1.233960
O       1.599432    0.538627    1.724545
C       0.449470    0.252498    2.544415
C      -0.537661    1.354804    2.792918
O      -1.297004    1.310415    3.728356
H       0.670397    1.762457   -0.050502
H      -1.072978   -0.431391   -0.032776
H       1.789818   -1.474955   -2.961350
H       0.999698   -1.442895    1.261205
H       0.658113   -0.341968    3.433400
H      -0.516452    2.193688    2.075902
