16

O       0.024635    0.533716    1.061723
C      -0.070693    1.223198    0.090322
C      -1.438785    1.689618   -0.426248
O      -1.466796    2.722993   -1.365777
C      -1.253382    4.015738   -0.826445
C       0.156402    4.173929   -0.234704
N       1.135684    3.784312   -1.224353
C       1.401362    2.570982   -1.407961
O       1.044607    1.449485   -0.683126
H      -1.876712    0.809939   -0.912218
H      -2.043937    1.908565    0.464274
H      -1.382104    4.702954   -1.665788
H      -2.006774    4.247651   -0.058804
H       0.307128    5.226066    0.026208
H       0.242900    3.598562    0.700013
H       2.102446    2.261093   -2.178501
