19

C       0.244213    1.582847   -0.180161
C      -0.063086    0.094078    0.074513
C       0.592584   -0.477157    1.288463
C       0.090482   -0.866507    2.509718
N      -1.264953   -0.888880    2.908904
C       1.176054   -1.343656    3.316930
C       2.308607   -1.224557    2.547882
O       3.616863   -1.514648    2.773532
N       1.974423   -0.708536    1.338245
H       1.319359    1.748931   -0.307403
H      -0.258010    1.942170   -1.084888
H      -0.082777    2.198170    0.663715
H      -1.146607   -0.040458    0.171572
H       0.216879   -0.483861   -0.818956
H      -1.824303   -0.219704    2.394553
H      -1.363864   -0.682825    3.895729
H       1.115772   -1.733129    4.321845
H       3.690384   -1.899181    3.651800
H       2.628077   -0.551204    0.591942
