13

N       0.127921    1.378639    0.144094
C      -0.014374   -0.003727    0.032619
C      -1.144372   -0.806760   -0.005934
C      -0.706294   -2.150178   -0.023930
C       0.676382   -2.146147   -0.005426
N       1.080884   -0.813694    0.030304
C       1.605782   -3.201022   -0.030276
N       2.386927   -4.059884   -0.047614
H       0.766181    1.780633   -0.533005
H      -0.762684    1.853663    0.087514
H      -2.164077   -0.455822   -0.032946
H      -1.322014   -3.034475   -0.068590
H       2.031550   -0.507227    0.150302
