17

C      -0.088811    1.426613    0.008820
N      -0.002240   -0.021950    0.007276
C      -0.001952   -0.792434   -1.117799
N      -0.084057   -0.207260   -2.384152
C      -0.000483   -2.134284   -0.745346
C       0.009268   -2.169987    0.656633
C       0.022782   -0.862549    1.126270
C       0.093070   -0.397380    2.489586
O       0.091687   -1.122497    3.468585
H       0.890642    1.897589    0.151384
H      -0.504071    1.748739   -0.948153
H      -0.755461    1.763379    0.804580
H       0.684801    0.417535   -2.600319
H      -0.152715   -0.908989   -3.108992
H       0.009004   -2.970950   -1.427192
H       0.029605   -3.038925    1.295555
H       0.157653    0.708178    2.611566
