20

N       0.045296    1.195511    0.668637
C       0.046586    0.046041    0.133345
O       1.217919   -0.649938   -0.084527
C       1.629683   -0.865905   -1.439945
C       0.956551   -2.056946   -2.112754
C      -0.515697   -1.838150   -2.475076
C      -1.483828   -1.574337   -1.335834
C      -1.353942   -2.147782    0.042494
C      -1.232444   -0.643464   -0.157602
H       1.009722    1.494554    0.828876
H       1.470669    0.052527   -2.022769
H       2.708034   -1.036900   -1.375060
H       1.510384   -2.271196   -3.035619
H       1.075356   -2.937514   -1.470916
H      -0.582075   -1.002269   -3.185496
H      -0.872865   -2.722207   -3.018808
H      -2.508105   -1.499031   -1.693255
H      -2.239257   -2.520050    0.545340
H      -0.437529   -2.665185    0.300368
H      -2.075859   -0.037025    0.148876
