17

N      -0.121187    1.482314    0.131336
C      -0.012696    0.052460    0.044143
C       0.895195   -0.622192   -1.066812
N       1.652303   -1.231525    0.025993
C       0.990996   -0.609233    1.055617
O       1.145267   -0.598557    2.245357
C      -1.387340   -0.580245    0.128405
C      -2.471565    0.013496    0.913321
O      -2.447097    0.127600   -0.520509
H       0.771963    1.943343    0.007606
H      -0.777152    1.823040   -0.564338
H       0.400431   -1.337587   -1.731449
H       1.462844    0.103041   -1.659660
H       2.474832   -1.815781    0.029635
H      -1.398066   -1.657935   -0.037209
H      -3.255873   -0.628887    1.308920
H      -2.282998    0.937351    1.451678
