16

N      -0.611004   -0.811189   -0.718073
C      -0.111656    0.163871   -0.350524
C       0.498014    1.410252    0.117477
C      -0.112309    2.045582    1.391802
C       1.314181    1.883542    1.973491
O       1.761336    1.196375    0.778007
C       2.065532    3.168679    2.208589
C       3.337203    3.450237    1.533776
O       2.115658    4.061524    1.097438
H       0.601882    2.101187   -0.725823
H      -0.455676    3.071700    1.268064
H      -0.879394    1.441145    1.873426
H       1.394110    1.235662    2.854467
H       1.860186    3.644457    3.169664
H       4.053621    4.123889    1.999920
H       3.742358    2.705553    0.854579
