13

C      -0.151159    1.392911   -0.151464
O       0.270906    0.060737    0.107226
C       0.780004   -0.579790   -1.018878
C       1.118611   -2.062473   -0.807749
O       0.172051   -2.441607   -1.860899
C      -0.242440   -1.145151   -2.037152
O      -1.111820   -0.742153   -2.740047
H       0.687124    2.011681   -0.505046
H      -0.953243    1.422107   -0.898194
H      -0.518488    1.794578    0.794564
H       1.573463    0.006446   -1.506960
H       2.130051   -2.385048   -1.057778
H       0.801719   -2.450047    0.161620
