17

C      -0.075519    1.611898    0.073625
C       1.446240    1.383913    0.014176
O       1.255785    0.134496    0.763238
C      -0.011329    0.074206    0.022160
C       0.531246   -0.239862   -1.388823
O      -0.314564    0.162308   -2.455497
C       0.481350    0.971621   -3.295280
O       1.375929    1.681311   -2.464757
C       1.692154    0.803278   -1.395183
H      -0.386626    1.964122    1.056868
H      -0.567372    2.154363   -0.732798
H       2.182618    2.061538    0.443382
H      -0.760940   -0.583410    0.459506
H       0.845957   -1.282241   -1.495209
H       1.038258    0.347440   -4.016929
H      -0.159745    1.681867   -3.824634
H       2.694406    0.378693   -1.505335
