16

O      -0.098604   -0.047790   -0.073107
C      -0.026713    1.148372    0.036467
C       1.277698    1.917470    0.083623
C       1.329394    2.913854    1.254506
C       2.723264    3.474441    1.377573
C       3.788760    2.795782    0.947341
C       3.680156    1.416083    0.394725
O       4.647175    0.692779    0.240338
N       2.395705    1.009864    0.133384
H      -0.935047    1.787953    0.084546
H       1.286525    2.518922   -0.848010
H       0.600428    3.714288    1.090194
H       1.048740    2.416484    2.194401
H       2.837988    4.439730    1.863294
H       4.801185    3.167613    1.051157
H       2.260451    0.076882   -0.229970
