16

C       0.098157    1.548611   -0.008289
C      -0.004699    0.027535    0.086364
N       0.716751   -0.511176    1.239619
N       2.067296   -0.516301    1.171123
C       2.676759   -0.949438    2.222832
C       1.970712   -1.402912    3.409539
N       2.591070   -1.868655    4.423737
N       0.552902   -1.282358    3.360875
N      -0.013268   -0.854375    2.311023
H       1.143345    1.859723   -0.083528
H      -0.431620    1.900847   -0.898037
H      -0.347744    2.023885    0.870036
H      -1.039601   -0.296393    0.205155
H       0.413219   -0.448100   -0.804915
H       3.761897   -0.967182    2.199809
H       1.910288   -2.123000    5.144330
