15

C      -0.084963   -1.249747    0.075888
C      -0.047763   -0.049124    0.088625
C       0.030390    1.404174    0.072455
N      -0.449971    1.961560    1.383100
C       0.371841    2.902157    1.632384
C       1.480378    2.697367    2.641256
C       2.236500    2.451454    1.281007
C       1.455492    1.999341    0.031896
N       1.299914    3.357778    0.545685
H      -0.126314   -2.310965    0.068798
H      -0.525986    1.790270   -0.795179
H       1.915492    3.584077    3.109142
H       1.319915    1.889045    3.352375
H       3.310291    2.610860    1.195042
H       2.050549    1.876609   -0.870248
