18

C      -0.215399    1.487687   -0.025074
N       0.063318    0.060123    0.050007
C       1.398282   -0.513061   -0.191336
C       2.593072    0.387066   -0.094064
C       2.730820    0.905402    1.134709
C       1.660103    0.373811    2.023837
O       1.504633    0.597302    3.201781
C       0.782844   -0.553450    1.172140
C       0.156422   -1.742129    1.852513
H       0.607813    2.147527    0.279839
H      -0.488951    1.730929   -1.056501
H      -1.078151    1.698580    0.613387
H       1.420807   -1.366621   -0.862676
H       3.224730    0.609523   -0.947082
H       3.466682    1.625243    1.469933
H      -0.447678   -1.409086    2.702103
H      -0.484410   -2.283727    1.153581
H       0.921929   -2.422964    2.238575
