23

C       0.066238    1.586938    0.121830
C      -0.183792    0.088125   -0.082625
C       0.603854   -0.488858   -1.252915
C       2.115218   -0.785572   -1.098438
C       1.862781   -2.137585   -0.345718
C       2.780652   -2.925260   -1.296558
C       2.080070   -1.899936   -2.213778
C       2.248056   -1.706540   -3.696660
C       0.724441   -2.020309   -1.417672
H       1.122449    1.787480    0.331812
H      -0.205688    2.158315   -0.772917
H      -0.520022    1.980242    0.958240
H       0.064757   -0.454625    0.837707
H      -1.255033   -0.081604   -0.256083
H       0.346236    0.044094   -2.178658
H       2.943703   -0.096628   -0.916236
H       1.728895   -2.264653    0.728516
H       3.860699   -2.802468   -1.156180
H       2.534743   -3.980704   -1.460350
H       1.986366   -2.619610   -4.243364
H       1.610951   -0.898370   -4.072260
H       3.285829   -1.456813   -3.944970
H      -0.060641   -2.758004   -1.602458
