20

C       0.608817   -0.319052    1.330486
N       0.176923   -0.198690   -0.056953
C       1.208974   -0.638586   -0.992900
C      -1.170966   -0.683747   -0.295990
C      -1.802829   -0.076246   -1.570883
C      -2.006508    1.422004   -1.444912
O      -2.945384    2.014017   -1.911260
C      -1.369294   -2.201555   -0.293186
O      -0.504834   -3.012428   -0.084945
H       1.540749    0.239969    1.464330
H      -0.143357    0.124716    1.991463
H       0.784416   -1.357740    1.650003
H       1.479602   -1.697190   -0.882266
H       0.889949   -0.473054   -2.025676
H       2.105214   -0.030583   -0.831011
H      -1.789773   -0.337061    0.549730
H      -1.148032   -0.258452   -2.432341
H      -2.768093   -0.535952   -1.802792
H      -1.205979    1.943843   -0.878933
H      -2.421290   -2.520336   -0.492069
