27

C      -0.506082    1.425438    0.307148
C      -0.228643   -0.083118    0.333840
C       0.881588   -0.522508    1.305051
C       2.214392    0.149930    0.971327
C       0.456923   -0.424498    2.808004
C       0.316930   -1.972037    2.893308
C      -1.113253   -2.487997    3.035766
C       0.995101   -2.085243    1.485964
C       0.428128   -3.040494    0.441758
H       0.343158    1.991855   -0.085910
H      -1.369281    1.646935   -0.328387
H      -0.726744    1.810869    1.308508
H      -1.159542   -0.601293    0.591627
H       0.030600   -0.418196   -0.679171
H       2.163513    1.238626    1.077404
H       3.005877   -0.205287    1.639883
H       2.524631   -0.069857   -0.057911
H       1.243515   -0.019847    3.451299
H      -0.461694    0.137165    3.005938
H       0.922519   -2.420621    3.687433
H      -1.788564   -2.051470    2.292565
H      -1.162537   -3.577184    2.928604
H      -1.511282   -2.233765    4.024662
H       2.052940   -2.335933    1.626448
H      -0.633771   -2.871918    0.243104
H       0.961614   -2.945845   -0.510763
H       0.538336   -4.079501    0.772721
