19

O       0.030388    1.391334   -0.167866
C       0.033020   -0.018567   -0.033258
C       0.606320   -0.533387    1.307628
C      -0.033668   -1.919609    1.488799
C      -1.406175   -1.792560    0.817204
O      -2.342891   -2.541678    0.960338
C      -1.385107   -0.565826   -0.040094
C      -2.606477    0.346393    0.034543
C      -2.342386   -0.446301   -1.201198
H       0.941040    1.685167   -0.267908
H       0.597161   -0.471690   -0.865972
H       1.699898   -0.551604    1.320137
H       0.269810    0.148674    2.096114
H       0.528269   -2.693991    0.949635
H      -0.128419   -2.255066    2.523725
H      -3.403922    0.016276    0.690766
H      -2.402424    1.409426    0.020079
H      -1.978103    0.081676   -2.076182
H      -2.965057   -1.313466   -1.394011
