23

C      -0.226384    1.593536   -0.070501
C      -0.020117    0.074701   -0.020292
C       0.796640   -0.472831   -1.185613
C       0.083228   -0.523377   -2.559473
O       0.286269   -1.945464   -2.677201
C       0.890863   -2.021286   -1.363381
C       2.367348   -2.393453   -1.424894
C       3.045339   -1.109691   -1.941552
C       2.255900    0.024412   -1.253978
H       0.726917    2.129689   -0.025575
H      -0.733084    1.894660   -0.994259
H      -0.839708    1.934702    0.768909
H       0.476629   -0.196086    0.921231
H      -0.998226   -0.423010   -0.004704
H      -0.984611   -0.266004   -2.532406
H       0.559698    0.029636   -3.379610
H       0.296327   -2.648852   -0.688720
H       2.718612   -2.636045   -0.413487
H       2.540825   -3.267932   -2.058580
H       4.116514   -1.070324   -1.726757
H       2.928785   -1.047198   -3.028627
H       2.351116    0.982363   -1.774824
H       2.632613    0.173837   -0.233690
