17

C       0.201616    1.595115   -0.192183
C       0.138767    0.145289   -0.090009
C       0.075068   -1.054053   -0.005752
C       0.022154   -2.500901    0.092738
C       0.862569   -3.201956   -0.965616
C       0.109640   -3.080609    1.532374
C      -1.329534   -3.517977    1.280383
O      -2.185766   -4.101851    1.862459
O      -1.388097   -2.989394    0.019246
H       0.819522    1.907558   -1.040682
H      -0.798566    2.018512   -0.333663
H       0.626078    2.039372    0.714499
H       1.913088   -2.917331   -0.858735
H       0.774272   -4.287013   -0.861991
H       0.526173   -2.914917   -1.964674
H       0.817912   -3.899377    1.669510
H       0.223567   -2.347442    2.330687
