13

N      -0.296251    1.256467    0.321188
C      -0.159388   -0.082144    0.084550
C      -1.062065   -1.052650   -0.269596
O      -2.383328   -0.845067   -0.606678
C      -3.319947   -1.149010    0.344149
O      -4.483602   -1.008318    0.146095
C      -0.294942   -2.240643   -0.303882
N       0.958672   -2.032484    0.011599
O       1.040763   -0.635731    0.258749
H       0.554592    1.794061    0.237407
H      -1.090492    1.683061   -0.133727
H      -2.855369   -1.525552    1.273246
H      -0.620191   -3.241952   -0.550198
