21

C       0.018564    1.597476    0.048066
C       0.018953    0.067461    0.003113
C      -1.391801   -0.529857   -0.015437
C      -1.400240   -2.059520    0.018449
O      -0.797455   -2.579289    1.193636
C      -2.837903   -2.623160   -0.151263
O      -3.449755   -2.140478   -1.345630
C      -2.853296   -4.085084   -0.094902
C      -2.863467   -5.286729   -0.123985
H       1.037947    1.995798    0.054459
H      -0.499873    2.021354   -0.819262
H      -0.488256    1.967787    0.946495
H       0.563559   -0.273924   -0.887191
H       0.564896   -0.334175    0.863899
H      -1.962731   -0.159541    0.851662
H      -1.939635   -0.198093   -0.903525
H      -0.791989   -2.451003   -0.807341
H      -1.253093   -2.198818    1.953458
H      -3.452495   -2.222609    0.667763
H      -3.151237   -2.703640   -2.068225
H      -2.873713   -6.348801   -0.126778
