23

C       0.646733    1.405944   -0.450751
C       0.066536    0.114007    0.126086
O       0.020718   -0.900496   -0.894758
C       0.928439   -1.925397   -0.597459
C       2.386842   -1.573437   -0.442335
C       1.491244   -1.742392    0.774520
C       0.790088   -0.521346    1.372153
C       1.751390    0.429255    2.098717
C      -0.280327   -1.024628    2.360934
H       1.702132    1.316802   -0.719422
H       0.092240    1.666511   -1.356690
H       0.542590    2.232152    0.259569
H      -0.978334    0.320600    0.391065
H       0.623580   -2.878389   -1.014837
H       3.112571   -2.360151   -0.622038
H       2.719818   -0.585159   -0.736374
H       1.674978   -2.582954    1.435309
H       2.559203    0.774120    1.448559
H       1.230303    1.310129    2.489483
H       2.210323   -0.083218    2.950887
H       0.177250   -1.569451    3.193905
H      -0.849362   -0.188835    2.782381
H      -0.985806   -1.697275    1.862660
