16

C       0.112030    1.471324    0.552450
C      -0.085981    0.075350   -0.036532
C       0.845806   -0.956168    0.606524
O       1.712206   -0.683681    1.395348
C      -1.496956   -0.430302    0.038767
C      -2.564145    0.039127    0.732339
O      -3.629292   -0.784377    0.487510
C      -3.138809   -1.724131   -0.347283
N      -1.892480   -1.576818   -0.653109
H       1.159511    1.768241    0.476401
H      -0.504054    2.205561    0.026868
H      -0.150702    1.488435    1.614355
H       0.191752    0.072859   -1.102566
H       0.659310   -2.000536    0.278687
H      -2.744053    0.874636    1.384941
H      -3.823992   -2.490254   -0.674618
