16

N      -0.128109    1.538173    0.000256
C      -0.039013    0.102542   -0.074075
C      -1.323223   -0.732310   -0.111802
C      -0.729780   -1.774819   -0.953292
N      -1.799554   -0.872386   -1.547808
C      -0.743767   -0.258749   -2.335442
N      -0.708191    0.201710   -3.504842
C       0.350308   -0.652448   -1.389696
O       1.660539   -0.739127   -1.767322
H       0.798055    1.951942    0.028003
H      -0.600117    1.918909   -0.814944
H       0.593588   -0.262510    0.741215
H      -2.099998   -0.807526    0.637351
H      -0.786270   -2.851906   -1.001537
H      -1.642954    0.227864   -3.919000
H       1.688593   -0.755773   -2.733203
