16

C      -0.089382    1.519761    0.023715
C       0.139222    0.040174   -0.001656
O      -0.698960   -0.792561    0.823363
C       0.715923   -0.798730    1.065244
C       1.389070   -1.971102    0.414456
N       2.074610   -2.841117    1.032378
N       1.109543   -1.845398   -0.949556
C       0.447050   -0.667783   -1.300790
N       0.148284   -0.207605   -2.444306
H       0.799612    2.052742   -0.325129
H      -0.916242    1.779300   -0.642404
H      -0.329563    1.844971    1.038233
H       1.055331   -0.442412    2.030660
H       2.460530   -3.546100    0.400812
H       1.333537   -2.564624   -1.619978
H       0.442958   -0.827186   -3.201479
