14

N       0.102900    1.301754    0.470622
C       0.002382   -0.034727    0.118646
C      -1.193114   -0.709275    0.195025
N      -1.489482   -1.964620   -0.246276
C      -0.665019   -2.938883   -0.396356
C       0.751809   -2.932166    0.074137
O       1.205347   -3.806009    0.777076
N       1.522370   -1.896126   -0.441368
C       1.200345   -0.655025   -0.419850
H       0.880572    1.812975    0.081981
H      -0.752666    1.835566    0.484012
H      -2.064320   -0.148028    0.530286
H      -1.040227   -3.874194   -0.812004
H       1.920346    0.034923   -0.873312
