20

C      -0.127151    1.562918   -0.034186
C      -0.044935    0.031514   -0.073324
C       0.768139   -0.467989   -1.252597
C       0.181848   -0.340032   -2.685444
C       0.490340   -1.848912   -2.858561
N       0.977449   -1.973191   -1.443974
C       2.460759   -1.822734   -1.341760
C       2.297774   -0.301533   -1.167264
O       3.036601    0.622425   -0.989935
H       0.871083    2.005730    0.021328
H      -0.619054    1.957742   -0.929690
H      -0.700870    1.897864    0.834657
H       0.402522   -0.344948    0.854824
H      -1.048212   -0.408267   -0.133850
H      -0.883093   -0.095750   -2.684305
H       0.695068    0.349401   -3.358663
H      -0.380386   -2.482639   -3.046017
H       1.253882   -2.086778   -3.607460
H       2.874707   -2.320960   -0.457817
H       3.032973   -2.144478   -2.219530
