21

C      -0.152417    1.555041   -0.245741
O      -0.266937    0.148587   -0.203829
C       0.658002   -0.573566   -0.997176
C       0.512014   -0.269608   -2.486101
C       2.129698   -0.556905   -0.464552
C       2.078499   -2.107020   -0.251193
C       0.561542   -2.077701   -0.633290
C       2.940706   -2.884770   -1.204386
O       3.733242   -3.734915   -0.889054
H       0.870709    1.894396   -0.025449
H      -0.455179    1.975160   -1.214569
H      -0.820541    1.947662    0.524660
H       0.799578    0.759611   -2.722511
H       1.151067   -0.929746   -3.080111
H      -0.525214   -0.423275   -2.801048
H       2.892183   -0.195249   -1.160678
H       2.229848   -0.018646    0.479411
H       2.296026   -2.444072    0.762798
H      -0.088217   -2.238270    0.227498
H       0.254387   -2.745174   -1.443234
H       2.796514   -2.613873   -2.279236
