23

C      -0.042773    1.544694    0.036505
C      -0.048308    0.042394    0.109744
C      -1.228172   -0.755127   -0.422255
C      -1.049214   -2.216905    0.100413
C      -2.397746   -2.837132    0.491684
C      -0.378183   -3.094079   -0.971826
C      -0.115378   -2.066019    1.345607
C       0.612239   -0.754304    1.153660
O       1.216488   -0.604665   -0.142082
H       0.862094    1.948895    0.497318
H      -0.072623    1.882867   -1.005323
H      -0.915785    1.963790    0.548290
H      -2.152645   -0.311367   -0.031270
H      -1.291562   -0.716408   -1.515489
H      -3.062473   -2.916073   -0.376051
H      -2.263767   -3.846559    0.896819
H      -2.909224   -2.236515    1.252019
H       0.585452   -2.676392   -1.268578
H      -0.214163   -4.110026   -0.594111
H      -1.012688   -3.169848   -1.862579
H      -0.700850   -2.009202    2.272163
H       0.569198   -2.914911    1.448351
H       1.166596   -0.302627    1.974275
