19

C       0.026648    1.410212    0.008831
O       0.018121    0.000450   -0.007048
C      -1.213865   -0.589578    0.001162
C      -1.371727   -1.959791   -0.001410
C      -0.356121   -3.049692   -0.011565
N      -2.737047   -2.184095    0.010902
C      -3.425909   -1.003083    0.026173
N      -4.840061   -1.033497    0.006303
C      -2.502110    0.024324    0.023728
H       1.074440    1.717793   -0.004101
H      -0.481130    1.830164   -0.870868
H      -0.453262    1.810006    0.913365
H      -0.413236   -3.688021    0.880315
H      -0.448768   -3.705710   -0.887511
H       0.641224   -2.605033   -0.036189
H      -3.185243   -3.080915   -0.066083
H      -5.236554   -0.999970    0.941875
H      -5.207889   -0.237565   -0.501638
H      -2.731435    1.077192    0.055838
