16

C       0.114157    1.491985   -0.004617
C      -0.055739    0.016243   -0.035913
C      -1.133117   -0.812508    0.032912
C      -2.580508   -0.462849    0.171136
C      -0.592040   -2.154138   -0.056642
C       0.761218   -2.020316   -0.171474
O       1.099362   -0.719064   -0.160495
C      -1.323301   -3.366119   -0.030266
N      -1.944131   -4.343834   -0.006312
H       0.742326    1.803192    0.837358
H       0.587995    1.858272   -0.922045
H      -0.856433    1.981061    0.095834
H      -3.163671   -0.845828   -0.673292
H      -3.009341   -0.899733    1.079459
H      -2.727452    0.618681    0.217341
H       1.562871   -2.733739   -0.264313
