14

O      -1.024349    1.358942    0.029285
C       0.088088    0.978505    0.279945
C       1.338898    1.781999   -0.031509
N       2.515083    0.933005   -0.251089
C       3.161430    1.474982   -1.207514
N       2.650053    2.652134   -1.739359
C       1.256165    2.745028   -1.268993
C       0.323591    2.332715   -2.332836
N      -0.328079    2.044074   -3.242338
H       0.294384    0.016494    0.792444
H       1.521560    2.396791    0.865204
H       4.101414    1.090977   -1.591599
H       2.829393    2.860366   -2.712346
H       1.003428    3.763245   -0.967394
