16

O       0.287540    1.384441   -0.222231
C       0.072752    0.009642   -0.025547
C       0.229074   -0.799952   -1.335827
N      -0.997760   -1.560846   -0.998880
C      -1.362570   -0.585819    0.069543
C      -1.443242   -1.285848    1.432918
O      -2.417084   -1.788670    1.938919
C      -0.061049   -1.245403    1.991854
C       0.759710   -0.545570    1.198396
H       0.155424    1.837127    0.618601
H       0.131348   -0.121699   -2.192241
H       1.127769   -1.413775   -1.455752
H      -1.676413   -1.640588   -1.745704
H      -2.197969    0.086852   -0.140154
H       0.195968   -1.731431    2.925141
H       1.814097   -0.358122    1.378220
