17

O      -0.027039    1.470935   -0.204297
C       0.046943    0.089926   -0.109761
C       0.058159   -0.539830    1.316554
O      -1.357221   -0.089250    1.457032
C      -1.284326   -0.695329    0.095631
C      -0.468404   -1.854617    0.704570
C       0.331349   -2.938222   -0.036861
C      -0.413995   -3.903543    0.905346
O      -1.115441   -2.807143    1.537337
H      -0.671409    1.732396    0.470923
H       0.761898   -0.276943   -0.849176
H       0.725274   -0.369384    2.161655
H      -2.198764   -0.708072   -0.497607
H       0.101856   -3.043601   -1.098629
H       1.413772   -2.891819    0.094792
H      -1.106478   -4.602327    0.423382
H       0.210068   -4.450232    1.620742
