16

C       0.030180    1.555229   -0.108540
C      -0.009129    0.063588    0.003311
C       0.445523   -1.078240   -0.899647
N       1.191549   -1.705611    0.183760
C       0.472773   -0.832848    1.176139
C      -0.771043   -1.602384    1.610213
O      -1.035279   -2.122030    2.653749
O      -1.565075   -1.721327    0.491877
C      -1.027077   -0.897295   -0.524922
H       1.047678    1.938484    0.020415
H      -0.326657    1.878124   -1.091694
H      -0.607981    2.026544    0.647308
H       0.803861   -1.088170   -1.923296
H       1.023381   -2.705772    0.301478
H       1.084250   -0.445225    1.988186
H      -1.758643   -0.610972   -1.269390
