22

C      -0.042474    1.538561   -0.028519
C      -0.107656    0.072758    0.411359
C      -1.423217   -0.575540    0.016072
O      -1.626592   -0.593474   -1.421359
C      -1.743666   -2.028625   -1.443413
C      -1.550911   -2.124151    0.082332
N      -0.363026   -2.844515    0.493290
C      -0.318900   -3.287686    1.884731
C      -0.545696   -4.264797    0.786191
H       0.922412    1.985062    0.229539
H      -0.177435    1.616927   -1.110885
H      -0.826593    2.135403    0.451319
H       0.714183   -0.498566   -0.030018
H       0.002804   -0.003453    1.501160
H      -2.260388   -0.055569    0.505142
H      -2.718243   -2.356749   -1.825306
H      -0.944126   -2.503331   -2.024528
H      -2.448840   -2.462351    0.623875
H       0.649445   -3.217364    2.371023
H      -1.168898   -3.051584    2.523266
H      -1.547240   -4.681437    0.690590
H       0.253984   -4.920785    0.455423
