19

C      -0.171655    1.526482    0.027110
C       0.126030    0.063661   -0.012409
O      -0.714091   -0.822547    0.736055
C       0.694168   -0.891069    0.968015
C       1.334241   -1.763362   -0.148602
C       2.807436   -2.068999   -0.022042
C       0.372512   -2.783066   -0.812565
O      -0.113688   -1.785651   -1.748732
C       0.734573   -0.778679   -1.183552
H       0.676126    2.107275   -0.350567
H      -1.043218    1.758868   -0.595125
H      -0.387695    1.845741    1.050358
H       1.038525   -0.750417    1.988307
H       2.988624   -2.820261    0.756008
H       3.215507   -2.454344   -0.961867
H       3.376921   -1.172452    0.248376
H       0.881348   -3.599966   -1.339160
H      -0.429256   -3.178945   -0.183214
H       1.325669   -0.224826   -1.919700
