16

O      -0.036761    1.411049    0.059461
C       0.042412    0.035041    0.030238
C       0.662936   -0.966503    1.015689
N       0.022720   -1.879646   -0.032840
C      -1.182677   -0.903542   -0.035838
C      -1.781393   -0.942760   -1.429366
C      -0.466163   -0.912173   -2.222638
O      -0.292317   -0.867028   -3.410351
C       0.560983   -0.913753   -1.115612
H       0.853015    1.781774    0.048984
H       1.751539   -1.054802    1.060411
H       0.211053   -1.059559    2.007673
H      -1.834535   -0.995374    0.833316
H      -2.345367   -1.858378   -1.631321
H      -2.412936   -0.081497   -1.664331
H       1.617097   -1.004528   -1.364673
