21

C       0.006955    1.528272   -0.070414
C       1.499907    1.994436   -0.008738
C       2.206035    0.780162    0.578014
O       3.599852    0.697169    0.353175
C       4.066140   -0.546076    0.867818
C       3.301804   -1.739901    0.280586
O       1.894885   -1.622308    0.466838
C       1.473247   -0.386417   -0.076263
C       0.009170   -0.024093    0.130028
H      -0.590615    2.015174    0.703991
H      -0.442035    1.801669   -1.028291
H       1.894776    2.190489   -1.010879
H       1.638053    2.902225    0.582248
H       2.011977    0.722614    1.665063
H       5.128048   -0.619093    0.614100
H       3.966619   -0.556070    1.965734
H       3.529928   -1.823333   -0.794784
H       3.613621   -2.664860    0.775130
H       1.716482   -0.364588   -1.154692
H      -0.287200   -0.291702    1.149437
H      -0.665048   -0.542441   -0.554937
