20

C       0.547844    1.531677   -0.177688
C       0.023967    0.103972    0.064544
C       0.199019   -0.746921   -1.199370
C       0.679563   -0.495893    1.308305
C       0.142346    0.016433    2.645178
O       0.968219   -0.353693    3.725443
C       1.367868   -1.794245    1.317079
O       2.120225   -0.566331    1.289678
H       1.624064    1.508447   -0.373376
H       0.050791    1.979274   -1.043548
H       0.376462    2.188926    0.679404
H      -1.051582    0.165692    0.284565
H       1.260273   -0.883105   -1.433464
H      -0.260594   -1.734033   -1.094733
H      -0.267450   -0.250816   -2.055862
H       0.019009    1.110004    2.593950
H      -0.850120   -0.413218    2.825612
H       1.873124   -0.215726    3.412543
H       1.433478   -2.344489    2.252673
H       1.435722   -2.389410    0.411066
