25

C       0.378604    1.262274   -0.382271
C       0.120002   -0.191966    0.042944
C       0.785032   -0.426825    1.410206
C      -1.384737   -0.584738    0.062702
C      -2.168200   -0.051658   -1.147609
O      -2.548059    1.294563   -0.874047
C      -1.559787   -2.113849    0.175692
C      -2.945132   -2.549788    0.659709
O      -1.264806   -2.651774   -1.116876
H       1.455992    1.461667   -0.383450
H      -0.004224    1.483275   -1.380264
H      -0.095833    1.966371    0.308726
H       0.603106   -0.850190   -0.691961
H       0.334337    0.218354    2.174341
H       0.703294   -1.460335    1.758530
H       1.851966   -0.184891    1.364322
H      -1.848035   -0.131201    0.949274
H      -1.549249   -0.120051   -2.052778
H      -3.058754   -0.668008   -1.327586
H      -2.951510    1.655637   -1.668847
H      -0.826358   -2.494601    0.900607
H      -3.740172   -2.201159   -0.004992
H      -3.004547   -3.643839    0.707448
H      -3.141463   -2.165686    1.665993
H      -1.348935   -3.608789   -1.068058
