17

O      -0.271585    1.466337   -0.133359
C      -0.022039    0.086943    0.006778
C       0.313527   -0.490229    1.439630
C      -0.975503   -1.312476    1.340080
O      -2.053646   -0.384931    1.198429
C      -1.318394   -0.740796    0.028398
C       0.931144   -0.357425   -1.088261
C       2.391764   -0.341574   -0.922933
O       1.661498   -1.570409   -0.923784
H       0.572713    1.929652   -0.094402
H       1.218232   -1.099830    1.447047
H       0.322538    0.246606    2.244919
H      -1.198292   -2.289077    1.751326
H      -1.870316   -1.143302   -0.813730
H       0.536124   -0.201599   -2.093784
H       3.030138   -0.177615   -1.789109
H       2.825326   -0.061204    0.036284
