20

C      -0.135486    1.563471    0.130381
C       0.027525    0.037421    0.063156
C       0.786761   -0.490666    1.289758
C      -1.341614   -0.639155   -0.046381
O       0.690171   -0.352857   -1.155708
C       1.996869    0.103585   -1.385820
C       2.443041   -0.454104   -2.728253
O       3.522546   -0.242989   -3.213217
H       0.824070    2.075414    0.249767
H      -0.616459    1.935624   -0.779113
H      -0.759742    1.838830    0.985702
H       0.205476   -0.311125    2.199137
H       0.956388   -1.567641    1.198280
H       1.754420    0.003191    1.419434
H      -1.867714   -0.286363   -0.937684
H      -1.222569   -1.723136   -0.126874
H      -1.955060   -0.419020    0.831788
H       2.070860    1.201149   -1.433388
H       2.715115   -0.234624   -0.622855
H       1.671534   -1.081954   -3.226144
