19

O       0.713685   -0.317971    1.286076
C       0.084035    0.022339    0.067028
C      -1.318160   -0.575839   -0.011625
O      -2.023446   -0.055908    1.137841
C      -2.099570   -0.677669   -1.362397
C      -1.155329   -1.864650   -1.715853
C      -1.535646   -2.103081   -0.225303
C      -3.005447   -1.780654   -0.689059
O      -4.032896   -1.487330    0.194056
H       0.044499   -0.199431    1.971261
H      -0.003850    1.119951   -0.047465
H       0.737467   -0.325843   -0.733536
H      -2.113343    0.897780    1.019557
H      -2.407038    0.142742   -2.013664
H      -1.559251   -2.590256   -2.424287
H      -0.116488   -1.639190   -1.943715
H      -1.193544   -2.906306    0.426971
H      -3.406112   -2.502958   -1.405018
H      -3.657575   -0.906701    0.870404
