21

C       0.188400    1.349198    0.330229
C       0.233086   -0.134620   -0.040010
O      -1.060321   -0.717503    0.150108
C       0.592818   -0.384605   -1.515291
C       2.038857    0.063530   -1.885411
C       2.863860   -1.206503   -1.871862
O       2.689703   -1.989266   -0.680603
C       1.969593   -2.367881   -1.867007
C       0.531894   -1.898157   -1.881939
H       1.161728    1.835419    0.218764
H      -0.540263    1.875547   -0.295151
H      -0.114788    1.469902    1.376806
H       0.974176   -0.650950    0.585924
H      -1.284344   -0.636805    1.082125
H      -0.140197    0.169788   -2.110454
H       2.068373    0.494446   -2.893279
H       2.440493    0.819708   -1.204699
H       3.864237   -1.225558   -2.297913
H       2.249727   -3.330504   -2.288193
H      -0.110025   -2.448158   -1.190943
H       0.125869   -2.040520   -2.890667
