17

N       0.054946    1.341069    0.091354
C      -0.048668   -0.024841    0.020604
N      -1.128250   -0.743504   -0.001526
C      -0.654850   -2.062814    0.007911
C      -1.594241   -3.221738    0.014420
C      -2.410404   -3.307615    1.315590
O      -3.316437   -4.398438    1.315128
C       0.695231   -2.045033    0.029726
O       1.106883   -0.720910    0.037486
H       0.893259    1.725090   -0.319122
H      -0.789428    1.815167   -0.191969
H      -2.291562   -3.124095   -0.828977
H      -1.044353   -4.157721   -0.125375
H      -1.735808   -3.477121    2.161064
H      -2.921165   -2.350253    1.489501
H      -3.989648   -4.219630    0.650955
H       1.474344   -2.786147    0.031559
