19

C      -0.273225   -0.880555    1.303558
C      -0.551952   -0.381534   -0.117575
C       0.665236   -0.252358   -1.030863
C       0.489532    0.809648   -2.106868
O       1.672619    0.886631   -2.884804
N       1.993478   -0.405214   -0.441231
C       1.521225   -1.426646   -1.405411
C       1.278166   -2.760596   -0.914848
N       1.066623   -3.843738   -0.568608
H       0.135666   -1.892696    1.308891
H       0.440979   -0.229699    1.812698
H      -1.205244   -0.891426    1.876543
H      -1.284540   -1.033730   -0.609346
H      -1.025148    0.607770   -0.056725
H      -0.386735    0.558963   -2.724017
H       0.282352    1.770980   -1.610796
H       1.570580    1.583191   -3.538628
H       2.653920    0.193776   -0.934128
H       1.949302   -1.399992   -2.402580
