19

C       0.094321    1.501420    0.077436
C      -0.026548   -0.009780    0.125954
O       0.808496   -0.482933    1.190063
C       0.848271   -1.814468    1.361674
N       1.546441   -2.327493    2.275008
C       1.571479   -3.774559    2.395300
C       3.033619   -4.229967    2.448067
O       3.729847   -3.587301    3.493042
H       1.129687    1.798663   -0.108954
H      -0.533450    1.901562   -0.723904
H      -0.225550    1.943158    1.024837
H      -1.065577   -0.314154    0.310375
H       0.294898   -0.459228   -0.823215
H       0.231207   -2.389409    0.653530
H       1.090728   -4.051159    3.342367
H       1.039352   -4.289724    1.577576
H       3.084654   -5.308531    2.633873
H       3.503427   -4.035820    1.468690
H       3.468243   -2.658323    3.438821
