16

C       0.253923    1.517316   -0.471461
N       0.067574    0.117080   -0.104518
C       1.255144   -0.711561    0.019241
C       0.474136   -0.339945    1.237237
C       1.041084    0.554274    2.262661
C       0.603024    0.817035    3.524982
O       1.429565    1.678120    4.110851
N       2.442556    1.973299    3.147522
N       2.189608    1.311704    2.110265
H       1.189075    1.963440   -0.107013
H       0.241824    1.584782   -1.563497
H      -0.586747    2.103299   -0.086935
H       1.182619   -1.719831   -0.380459
H       2.227696   -0.236155   -0.094995
H      -0.213951   -1.071326    1.655251
H      -0.238367    0.469057    4.101524
