17

C      -0.072850    1.317351   -0.147819
C       1.445890    1.516744   -0.006209
C       1.411043    0.145677    0.724196
O       0.021358   -0.039130    0.336280
C       2.296978   -0.954464    0.264273
C       3.289787   -1.601285    0.974647
N       3.835574   -2.511428    0.134030
N       3.260410   -2.519491   -1.085021
C       2.329193   -1.575912   -1.009384
H      -0.679937    1.946385    0.517224
H      -0.492861    1.362917   -1.158597
H       1.989352    1.481661   -0.951889
H       1.787229    2.372056    0.578936
H       1.492998    0.257638    1.815083
H       3.636775   -1.480772    1.989134
H       4.581943   -3.158004    0.324532
H       1.693374   -1.378209   -1.859443
