18

O      -0.083142   -0.014341   -0.000082
C       0.021948    1.187353    0.015494
C       1.316006    1.934078   -0.009719
C       1.424964    3.154635    0.973885
C       1.950894    4.003520   -0.188340
C       1.550581    2.963731   -1.182403
N       2.947727    3.298554   -1.007125
C       3.670546    2.177354   -0.359694
C       2.605605    1.115664    0.017552
H      -0.883142    1.838777    0.041420
H       0.439730    3.505772    1.295269
H       2.058755    3.011158    1.855025
H       1.927856    5.085437   -0.255126
H       1.065469    3.005413   -2.150166
H       4.405658    1.788113   -1.068869
H       4.218881    2.552168    0.509737
H       2.785684    0.661384    0.995941
H       2.557296    0.308004   -0.718460
