19

C      -0.078029    1.479447    0.098909
C      -0.017666   -0.004955   -0.039299
C      -0.037828   -0.810070   -1.161579
C       0.032127   -2.162125   -0.715644
C       0.096940   -2.127852    0.646369
N       0.135787   -3.364760    1.324355
C      -0.112198   -4.334579    0.205818
C       0.117875   -3.597360   -1.161759
N       0.064849   -0.834195    1.078836
H       0.803193    1.889379    0.610301
H      -0.124352    1.938533   -0.891593
H      -0.961690    1.816252    0.657673
H      -0.097101   -0.444338   -2.176320
H       1.047766   -3.535495    1.743086
H       0.516061   -5.219700    0.332127
H      -1.157330   -4.654157    0.271538
H      -0.645516   -3.898773   -1.886293
H       1.092795   -3.843580   -1.607578
H       0.037785   -0.524491    2.034677
