19

C       0.151575    1.443108    0.294240
C       0.077237   -0.040609    0.035494
C      -0.987980   -0.879775    0.648903
N       0.392352   -0.952426    1.163336
C       1.149915   -2.092789    0.609872
C       0.989336   -2.068485   -0.941402
C       0.709402   -0.584594   -1.242420
C       2.560315   -1.949743    1.001808
N       3.677559   -1.851817    1.279274
H       1.188528    1.793222    0.253421
H      -0.422405    1.996009   -0.457665
H      -0.250669    1.687111    1.280430
H      -1.692021   -0.430872    1.343413
H      -1.388605   -1.723234    0.092118
H       0.779021   -3.028144    1.042347
H       1.872903   -2.452156   -1.453394
H       0.146175   -2.700418   -1.229640
H       0.071872   -0.451194   -2.121386
H       1.644366   -0.045498   -1.431998
