20

C      -0.046338    1.493577    0.016844
C       0.005739   -0.022658    0.030363
C       0.796257   -0.681779   -1.130356
O       1.062800   -2.025116   -0.683699
C       0.486241   -2.123771    0.637359
C       0.721364   -0.723125    1.212552
C      -1.027240   -2.158887    0.411330
N      -1.813716   -1.277735    1.308019
C      -1.340444   -0.767804    0.002071
H       0.959761    1.925626    0.051627
H      -0.537786    1.868807   -0.888550
H      -0.606141    1.870483    0.878594
H       0.225590   -0.709100   -2.067683
H       1.746536   -0.163673   -1.318085
H       0.940158   -2.975637    1.143153
H       1.785608   -0.481363    1.261268
H       0.241742   -0.548129    2.173370
H      -1.488763   -3.025238   -0.048185
H      -2.796030   -1.526403    1.217321
H      -2.061290   -0.538428   -0.776809
