20

C       0.425257    0.938755   -0.520075
N       0.033498   -0.235862    0.252252
C       0.454637   -0.144873    1.639846
C      -1.292857   -0.664616    0.073543
C      -2.258840   -0.819622    1.027644
O      -3.390982   -1.349753    0.480561
C      -3.140487   -1.518659   -0.840808
C      -1.880505   -1.128972   -1.167934
C      -1.231452   -1.231845   -2.513274
H       1.511003    1.064757   -0.459292
H       0.158025    0.812639   -1.569721
H      -0.050506    1.865505   -0.153970
H      -0.053727    0.664256    2.195782
H       0.251549   -1.091233    2.148380
H       1.530944    0.048106    1.678955
H      -2.290315   -0.639782    2.087870
H      -3.944209   -1.940825   -1.422848
H      -1.801923   -1.895323   -3.169488
H      -1.154620   -0.262255   -3.020435
H      -0.215831   -1.632703   -2.426665
