18

C       0.062229    1.517364    0.106514
C       0.000035   -0.010646   -0.028636
O       0.631117   -0.696516    1.038838
C       2.036358   -0.707655    0.996164
C       2.821180    0.345042    1.818091
O       3.538992   -0.696306    2.507883
C       2.671997   -1.715240    1.966496
C      -1.398398   -0.472491   -0.065176
N      -2.502253   -0.806076   -0.121384
H       1.101297    1.853959    0.063000
H      -0.487610    1.993425   -0.709798
H      -0.375722    1.829080    1.057342
H       0.463419   -0.307394   -0.983779
H       2.390803   -0.805399   -0.038267
H       3.492809    1.020683    1.276084
H       2.175349    0.923468    2.491804
H       1.952096   -2.090491    2.704914
H       3.230779   -2.551627    1.534736
