23

C      -0.015662    1.609603    0.035152
C      -0.010328    0.077828   -0.017763
C       0.702171   -0.495826   -1.264990
C       2.161017   -0.083332   -1.197142
O       2.713398    0.690535   -1.936405
C       0.602250   -2.039148   -1.371510
C      -0.842878   -2.556816   -1.356460
C       1.324449   -2.528983   -2.632740
O       1.352065   -3.947944   -2.605145
H       0.997018    2.024198    0.049709
H      -0.526497    2.030054   -0.837603
H      -0.535544    1.963836    0.930257
H       0.468144   -0.327366    0.884578
H      -1.041865   -0.284577   -0.003623
H       0.275525   -0.035945   -2.165653
H       2.715688   -0.558302   -0.349960
H       1.134532   -2.477197   -0.514696
H      -0.847426   -3.626005   -1.577716
H      -1.325774   -2.409955   -0.387527
H      -1.448245   -2.049476   -2.117431
H       0.793373   -2.155283   -3.524238
H       2.346082   -2.120702   -2.670706
H       1.758816   -4.257618   -3.419266
