16

O       0.146888    0.145571   -0.326528
C       0.032010    1.290175   -0.004854
C      -1.170134    2.212462    0.251440
C      -0.196823    3.199440    0.939774
C       1.031688    2.382965    0.417222
O      -0.347893    4.514088    0.455269
C       0.541352    5.425344    1.057544
C       0.306325    6.761616    0.503998
N       0.145326    7.825367    0.085899
H      -1.559160    2.637008   -0.680215
H      -1.998158    1.804391    0.833933
H      -0.272152    3.183089    2.035599
H       1.813574    2.087557    1.120218
H       1.488020    2.859700   -0.457643
H       0.398376    5.465082    2.149571
H       1.592317    5.150471    0.875879
