18

C      -0.141887    1.517929   -0.212836
C      -0.039752    0.026256    0.027646
C       1.244205   -0.735554   -0.199928
C       0.683450   -0.600739    1.197772
C       1.395245    0.154533    2.317881
N       2.033018   -0.823831    3.211279
C       2.364585    1.161374    1.833224
N       3.173091    1.920532    1.503812
H       0.789823    2.041189    0.011250
H      -0.384781    1.714854   -1.262535
H      -0.935367    1.964450    0.397288
H      -0.943710   -0.512446   -0.246792
H       1.211499   -1.706681   -0.681315
H       2.124959   -0.147270   -0.438935
H       0.214539   -1.485486    1.617382
H       0.647359    0.692770    2.914525
H       2.743153   -1.335347    2.693487
H       2.514772   -0.343850    3.966352
