17

C      -0.115202    1.614753    0.171239
C       0.004013    0.120838    0.148380
O       0.863480   -0.403858   -0.906399
C       1.691273   -1.131967    0.033060
C       0.724827   -0.812582    1.185982
O       1.216287   -0.288996    2.378367
C      -0.521160   -1.744271    1.242029
C      -1.226183   -0.813834    0.227028
O      -2.305123   -0.815994   -0.286262
H       0.872430    2.080360    0.230870
H      -0.612774    1.960093   -0.740460
H      -0.709221    1.940262    1.030554
H       1.819413   -2.182404   -0.252315
H       2.671746   -0.655163    0.153451
H       1.454873   -1.014736    2.965055
H      -0.400475   -2.791631    0.952814
H      -1.020803   -1.693066    2.215731
