21

C       0.007620    1.568693    0.009622
C       0.062401    0.039229    0.004843
C       0.684050   -0.517419   -1.288227
C       0.948136   -1.997983   -1.215576
C       0.917036   -2.696390   -0.080733
C       0.642812   -2.084121    1.269410
C       0.776559   -0.549737    1.256867
C       2.240737   -0.145574    1.296511
O       2.651012    0.879424    1.781507
H       1.009117    2.008439    0.012342
H      -0.522552    1.935561   -0.875812
H      -0.517081    1.942628    0.894584
H      -0.967687   -0.339117    0.056046
H       0.014800   -0.302637   -2.131495
H       1.617574    0.017140   -1.523598
H       1.171187   -2.503603   -2.152206
H       1.099531   -3.768055   -0.102197
H      -0.365099   -2.360146    1.609168
H       1.325034   -2.515065    2.015066
H       0.313311   -0.114994    2.149361
H       2.943203   -0.874280    0.830101
