21

C      -0.118563    1.582499   -0.041827
C      -0.004346    0.038851   -0.010769
C       0.807882   -0.404292    1.222448
C      -1.415570   -0.573349    0.044744
O      -2.039139   -0.143375    1.248869
C       0.650031   -0.415953   -1.326933
O      -0.000300   -0.847034   -2.248285
C       2.170261   -0.283619   -1.435897
O       2.558944   -0.498541   -2.768225
H       0.863754    2.062847   -0.012458
H      -0.636967    1.918369   -0.945461
H      -0.692543    1.916202    0.825575
H       0.259151   -0.137075    2.128028
H       0.960733   -1.489049    1.232568
H       1.787451    0.080368    1.264251
H      -1.982094   -0.256189   -0.838524
H      -1.338874   -1.670354    0.007418
H      -2.944688   -0.464642    1.245546
H       2.469436    0.709366   -1.062245
H       2.612542   -1.021294   -0.745064
H       3.519431   -0.471536   -2.802998
