15

O      -0.158363    0.119904   -0.606663
C      -0.041302    1.209506   -0.104824
C       1.247522    1.927803    0.033837
C       1.245191    3.452711   -0.015436
C       1.572742    2.770051    1.266653
C       0.639311    2.838448    2.469559
C       0.938109    3.997923    3.312162
N       1.188446    4.914891    3.968715
H      -0.933362    1.760581    0.275342
H       2.081784    1.404931   -0.420615
H       2.033565    3.936742   -0.578969
H       0.274894    3.933918   -0.097044
H       2.621934    2.744513    1.543594
H      -0.408061    2.903320    2.158944
H       0.730783    1.932733    3.080404
