11

N       0.017566   -1.135207   -0.003580
C       0.001725    0.020154    0.002882
C      -0.017894    1.467206    0.011020
N      -1.223939    2.040851    0.030050
C      -1.227454    3.374387    0.037000
C      -0.053888    4.120958    0.025155
C       1.139491    3.406660    0.005430
N       1.172144    2.073521   -0.001908
H      -2.202851    3.853811    0.052551
H      -0.068576    5.203929    0.030971
H       2.101525    3.912500   -0.004860
