17

C      -0.013089    1.530329   -0.000368
C       0.004733    0.023076   -0.007236
C      -0.060146   -0.695698   -1.203582
C      -0.042840   -2.086435   -1.198723
C       0.039878   -2.786757    0.005721
C       0.057806   -4.263298    0.003877
O       0.127154   -4.957218    0.992518
C       0.105342   -2.073790    1.210761
C       0.087737   -0.689985    1.199777
H       0.893691    1.934027    0.463916
H      -0.082413    1.936040   -1.012605
H      -0.863072    1.912800    0.575815
H      -0.124697   -0.159352   -2.145226
H      -0.093768   -2.636196   -2.134716
H       0.000862   -4.718383   -1.011440
H       0.169246   -2.631988    2.138308
H       0.138683   -0.142601    2.136602
