16

C      -0.142857    1.416813    0.020135
C      -0.036962   -0.088284    0.026267
O       0.563276   -0.499836   -1.193134
C       0.909121   -1.822970   -1.282663
N       1.366973   -2.342919   -2.335494
C       0.732702   -2.602577   -0.002681
C       1.124369   -1.786460    1.217950
O       1.707067   -2.201955    2.174334
O       0.757802   -0.473923    1.144737
H       0.854510    1.853387   -0.067831
H      -0.753745    1.740538   -0.825237
H      -0.603029    1.757811    0.949730
H      -1.024297   -0.563184    0.117493
H       1.404843   -1.654903   -3.090006
H      -0.326580   -2.876215    0.107829
H       1.311270   -3.522665   -0.037035
