17

C      -0.171709    1.564107   -0.003428
C       0.030511    0.050570   -0.015281
C       0.938462   -0.507310   -1.159598
C       1.942941   -1.335176   -0.338367
O       1.180822   -1.837758    0.734591
C       0.772821   -0.547601    1.219664
C       2.134410    0.149821    1.314490
O       2.535858    1.009640    2.038739
O       2.858457   -0.402973    0.291991
H       0.779732    2.101430    0.054988
H      -0.685765    1.887804   -0.913391
H      -0.781099    1.874688    0.851438
H      -0.942356   -0.447288   -0.057192
H       0.385631   -1.143417   -1.853831
H       1.444054    0.277047   -1.726888
H       2.514960   -2.117940   -0.830933
H       0.220463   -0.621147    2.152219
