18

C       0.106838    1.483352   -0.018558
O       1.210471    0.580380   -0.106871
C      -0.102468    0.031167    0.061268
C      -0.363554   -0.654760    1.345647
C       0.099575   -0.264639    2.749394
C      -0.427841   -1.658349    3.185388
C      -1.934806   -1.534131    2.906240
N      -1.646104   -1.452273    1.435231
C      -0.327746   -2.103697    1.675099
H       0.066762    2.083752    0.889025
H      -0.143369    2.012259   -0.937089
H      -0.499531   -0.481351   -0.814420
H       1.189404   -0.203262    2.778963
H      -0.340979    0.614568    3.233268
H      -0.024786   -2.164341    4.060133
H      -2.493775   -2.454974    3.090975
H      -2.474250   -0.678253    3.329460
H       0.032508   -2.977122    1.147415
