17

O      -0.798273    1.026113    0.402784
C       0.252364    0.878835   -0.168287
C       1.420055    1.821527   -0.056211
C       1.396770    2.947708    1.010763
N       1.803509    3.981243   -0.003134
C       2.911926    3.394158   -0.826945
C       3.717097    2.216882   -0.302372
N       2.707252    1.137866   -0.170429
C       1.525366    2.983513   -1.089898
H       0.438463    0.018843   -0.848958
H       0.387257    3.175111    1.356966
H       2.071128    2.837351    1.867264
H       3.397271    4.136980   -1.449425
H       4.498713    1.932018   -1.016100
H       4.212932    2.460966    0.647911
H       2.889766    0.572204    0.654162
H       0.909277    3.180250   -1.958260
