23

C      -0.033408    1.611041   -0.062881
C      -0.073928    0.099541    0.062943
C      -1.315435   -0.524814   -0.535334
O      -1.336554   -0.251248   -1.932161
C       1.209780   -0.689475   -0.059077
C       0.501144   -0.604979    1.275457
C       1.107787    0.126648    2.453965
C       2.082139   -0.749354    3.234990
O       2.580894    0.015930    4.322372
H       0.917781    2.028920    0.274434
H      -0.175716    1.895482   -1.109073
H      -0.832721    2.080592    0.523776
H      -1.311666   -1.610605   -0.348831
H      -2.210338   -0.109047   -0.042948
H      -2.195842   -0.512696   -2.275268
H       1.194657   -1.626349   -0.605864
H       2.130343   -0.125190   -0.173679
H      -0.035957   -1.507225    1.565504
H       1.644220    1.023432    2.128283
H       0.322492    0.465343    3.141450
H       1.564723   -1.656122    3.590337
H       2.895387   -1.079915    2.569515
H       3.206325   -0.527311    4.810306
