23

C       0.105809    1.515391   -0.098471
C       0.005439   -0.011010    0.038580
C       0.753080   -0.483956    1.292955
C      -1.458841   -0.513313    0.038039
C      -2.290666    0.047117   -1.128607
N      -1.445561   -1.985361    0.074446
C      -2.705601   -2.607136    0.454335
C      -2.565659   -4.065841    0.520004
N      -2.465190   -5.216107    0.548262
H       1.150214    1.833490   -0.021911
H      -0.278624    1.878941   -1.054727
H      -0.448912    2.019691    0.702391
H       0.494080   -0.460115   -0.840360
H       0.666429   -1.564473    1.416993
H       1.813813   -0.220284    1.234780
H       0.343450   -0.004279    2.190753
H      -1.921212   -0.189374    0.982351
H      -2.418261    1.129967   -1.056029
H      -1.807745   -0.171928   -2.088791
H      -3.292466   -0.393084   -1.150177
H      -1.136909   -2.352191   -0.821063
H      -2.987814   -2.245800    1.451149
H      -3.561754   -2.388816   -0.208595
