19

C      -0.148697    1.602408    0.281056
C       0.048622    0.110809    0.094740
C       0.551021   -0.471367   -1.274448
N       0.880043    0.394880   -2.384341
C       0.062509    0.560439   -3.461043
O      -1.021685    0.035576   -3.597047
C       1.716979   -1.057584   -0.494147
C       2.439944   -0.020193    0.272158
N       1.191498   -0.549133    0.839444
H       0.697047    2.196576   -0.076048
H      -1.034481    1.930462   -0.271930
H      -0.302576    1.831097    1.340452
H      -0.860653   -0.413329    0.399436
H      -0.143612   -1.220179   -1.653902
H       1.765326    0.876393   -2.377437
H       0.506999    1.239626   -4.215763
H       2.101095   -2.065688   -0.609554
H       3.318201   -0.340500    0.824085
H       2.490050    1.008503   -0.075734
