16

N       0.146914    1.397457    0.105191
C       0.165824    0.132473    0.059058
O      -1.007839   -0.568959    0.173781
C      -0.752704   -1.972903    0.093855
C       0.736399   -2.077153   -0.092023
C       1.255103   -0.850757   -0.104863
C      -1.254725   -2.653360    1.353752
C      -2.562682   -3.312229    1.396285
O      -1.356207   -4.072623    1.265773
H       1.091700    1.763451    0.004412
H      -1.296568   -2.388105   -0.766385
H       1.247002   -3.026105   -0.184516
H       2.291884   -0.565295   -0.216146
H      -0.820735   -2.272583    2.278602
H      -3.079476   -3.418282    2.347903
H      -3.201146   -3.293976    0.514432
