18

C      -0.202398    1.399445    0.139818
N       0.569801    0.178847   -0.113319
C       0.801084   -0.662538    0.957150
C       0.631555   -1.974351    1.177324
N       1.122008   -2.237306    2.474798
C       1.666910   -1.076967    2.989291
O       1.404669   -0.076825    2.057120
N       2.281777   -0.941961    4.082562
C       2.799709    0.368013    4.431178
H       0.292998    1.975726    0.922987
H      -0.215890    2.001280   -0.771725
H      -1.238351    1.203701    0.454914
H       0.227987   -0.338746   -0.911667
H       0.146421   -2.726332    0.580953
H       1.484696   -3.125119    2.778171
H       3.176343    0.933972    3.567751
H       2.031993    0.987106    4.917512
H       3.618544    0.249136    5.147131
