20

C      -0.050657    1.536057   -0.019565
C       0.027160    0.023561   -0.006582
C       1.073099   -0.718772   -0.900618
C       1.084995   -1.821904    0.190665
C       0.676412   -0.721067    1.205151
C      -0.086174   -2.778564   -0.031048
N      -1.295367   -1.998336   -0.257980
C      -1.336637   -0.628795   -0.264157
O      -2.362424   -0.004517   -0.457188
H       0.937244    1.969713    0.166584
H      -0.416832    1.900845   -0.983299
H      -0.741861    1.898954    0.746260
H       0.780001   -0.996318   -1.917195
H       2.017615   -0.168665   -0.929859
H       2.006621   -2.380958    0.363668
H       1.545324   -0.171382    1.577201
H       0.033634   -1.000637    2.044820
H       0.115837   -3.427273   -0.895092
H      -0.212164   -3.429234    0.845853
H      -2.174813   -2.463703   -0.424384
