18

C      -0.002117    1.563446   -0.039398
C       1.335482    2.247893    0.062361
C       2.480545    1.570499    0.143115
C       2.481600    0.070568    0.146732
C       2.045902   -0.691155   -1.116923
C       1.261552   -1.675310   -0.340010
C       1.251686   -0.618952    0.819331
C       0.091497    0.040154    0.047336
N       0.543223   -0.684311   -1.197423
H      -0.674386    1.945962    0.742100
H      -0.487364    1.817108   -0.993052
H       1.334443    3.335053    0.076104
H       3.430242    2.093528    0.213625
H       3.417053   -0.351052    0.523207
H       2.572339   -0.802964   -2.056059
H       1.128495   -2.746595   -0.402665
H       1.232868   -0.787362    1.894354
H      -0.875457   -0.393029    0.319833
