21

C       0.336101    1.664784   -0.175844
C      -0.011798    0.197391    0.110623
C       0.243918   -0.668535   -1.141040
C       0.708613   -0.345301    1.318024
C       1.903494    0.077996    1.863722
N       2.183584   -0.698674    2.953445
C       1.186641   -1.636490    3.125205
C       0.257633   -1.438141    2.127817
N      -0.979935   -2.100369    1.962001
H       1.394378    1.776318   -0.439599
H      -0.250783    2.045968   -1.018014
H       0.137546    2.296356    0.694865
H      -1.088086    0.146411    0.328665
H       1.302402   -0.633216   -1.421463
H      -0.010144   -1.719812   -0.967563
H      -0.347776   -0.316696   -1.993833
H       2.566133    0.875042    1.567997
H       2.985168   -0.594681    3.547833
H       1.214899   -2.346348    3.936156
H      -1.049062   -2.923199    2.548172
H      -1.137241   -2.384117    1.002028
