14

C      -0.117251    1.446670   -0.081086
C       1.272795    0.915858    0.093048
C       0.103012   -0.049468    0.044730
C      -0.314989   -0.742302    1.268748
N      -0.794215   -1.983773    1.295062
N      -1.017227   -2.142736    2.595662
N      -0.709849   -1.097488    3.344885
N      -0.259894   -0.193446    2.515646
H      -0.575632    1.942582    0.766458
H      -0.415569    1.822951   -1.052922
H       1.945166    0.921496   -0.757207
H       1.746976    1.055693    1.057397
H      -0.013606   -0.648293   -0.850356
H      -1.392136   -2.993615    2.986966
