17

C      -0.108476    1.331279    0.052158
C       0.026208   -0.176071   -0.006686
O      -0.269699   -0.919084    0.904505
N       0.607486   -0.669640   -1.171078
C       0.196708   -0.491030   -2.547738
C       0.143600   -1.839541   -1.883656
C       1.162463   -2.929995   -2.102344
O       1.272593   -3.747195   -0.953639
H       0.799649    1.818776   -0.312595
H      -0.935992    1.659449   -0.587065
H      -0.314856    1.634547    1.078294
H      -0.751554    0.004121   -2.746020
H       0.990540   -0.258574   -3.253633
H      -0.844435   -2.198716   -1.597608
H       0.853769   -3.585163   -2.924482
H       2.125557   -2.470896   -2.377644
H       1.298113   -3.162574   -0.185889
