19

C       0.947396    0.452012   -1.328756
N       0.189182   -0.285634   -0.320391
C       0.245579    0.310273    1.003083
C       1.617029    0.294501    1.534267
N       2.689484    0.301998    1.963475
C      -1.096587   -0.703998   -0.814476
C      -2.352348   -0.811518    0.016104
C      -2.251562    0.241502   -1.067204
O      -2.034259    1.568024   -0.675067
H       1.978931    0.582965   -0.990462
H       0.969276   -0.131848   -2.253774
H       0.514223    1.439351   -1.551129
H      -0.126353    1.347873    1.042364
H      -0.368960   -0.279294    1.688526
H      -0.985031   -1.482302   -1.566983
H      -2.985838   -1.678784   -0.134667
H      -2.349707   -0.437898    1.033600
H      -2.838306    0.118108   -1.976892
H      -2.862435    1.924572   -0.335992
