12

O      -0.041975   -0.046244    0.003630
C       0.048646    1.140112    0.008481
O      -1.196741    1.868539    0.029002
C      -1.221426    3.189176    0.036336
C      -0.085715    3.943005    0.025190
C       1.136669    3.182428    0.004887
N       1.206559    1.888436   -0.002877
C      -0.100173    5.359639    0.032896
C      -0.082947    6.563166    0.039107
H      -2.225796    3.600302    0.051911
H       2.080736    3.726635   -0.004736
H      -0.075288    7.625289    0.044789
