19

C      -1.022855    1.239838    0.204047
C      -0.165966    0.001217    0.005841
N       0.984468    0.174166   -0.924329
C       1.918195   -0.533649   -0.017531
C       3.210179    0.212252    0.236313
O       4.221035   -0.295999    0.647952
C       0.844716   -0.411990    1.088009
C       0.965512    0.073743    2.479296
N       0.678803   -1.345730    2.180855
H      -0.400240    2.098565    0.469109
H      -1.566015    1.482501   -0.715348
H      -1.765323    1.081506    0.994809
H      -0.803856   -0.857190   -0.259308
H       0.870690   -0.250753   -1.837332
H       2.135465   -1.582601   -0.253428
H       3.130749    1.304797    0.034194
H       1.945334    0.254246    2.912855
H       0.169124    0.701502    2.870825
H      -0.307911   -1.550860    2.324754
