17

N       0.008103   -1.089880   -0.097350
C       0.009778    0.064954   -0.036847
C      -0.006073    1.492353    0.084165
C      -1.062506    2.228391    0.912905
C      -0.595204    3.650562    0.540842
C       0.908384    3.594367    0.891544
C       1.224813    2.354785    0.062993
N       0.338308    2.314176   -1.118201
C      -0.522438    3.520222   -0.991783
H      -2.081124    2.004571    0.585054
H      -0.975348    2.005470    1.979671
H      -1.170066    4.478808    0.949948
H       1.461600    4.475714    0.553679
H       1.100113    3.445164    1.957987
H       2.218667    1.941125   -0.051067
H      -1.489164    3.338464   -1.468528
H      -0.033799    4.365587   -1.484326
