17

C       0.112898    1.494682   -0.160009
C       0.005216    0.018090    0.057163
N      -0.280332   -0.796918   -0.957964
N      -0.312787   -2.027933   -0.409881
C      -0.038221   -2.028430    0.917894
C       0.174074   -0.708810    1.262415
C      -0.035134   -3.282052    1.694560
C      -1.205502   -4.180589    1.734385
O      -0.074960   -4.486004    0.916027
H       1.100813    1.870550    0.127729
H      -0.050747    1.726733   -1.214386
H      -0.627791    2.042903    0.432649
H      -0.427327   -2.843758   -0.988231
H       0.407726   -0.323035    2.242143
H       0.650669   -3.308374    2.540133
H      -1.350865   -4.836215    2.591515
H      -2.108298   -3.894400    1.198162
