14

C       0.004443    1.462386    0.014887
C      -0.013302   -0.045237    0.020979
O      -0.062162   -0.705948    1.044547
C       0.025130   -0.746564   -1.277402
N      -0.002441   -0.153461   -2.445249
O       0.010001   -1.128032   -3.367473
N       0.047455   -2.394090   -2.787365
C       0.062775   -2.169152   -1.493416
N       0.151284   -3.123145   -0.533463
H       0.924390    1.824347   -0.455831
H      -0.825562    1.849510   -0.584280
H      -0.062569    1.829343    1.039145
H      -0.071779   -4.070562   -0.789966
H      -0.069364   -2.814613    0.401586
