16

O      -0.182898    0.088584    0.407614
C      -0.106678    1.240269    0.099132
C      -1.071305    2.300533   -0.475707
N       0.087049    3.220276   -0.714246
C       0.287642    4.268785    0.345456
C       1.306029    3.378863    1.088601
O       2.657201    3.472523    0.600445
C       2.495089    2.313095   -0.261368
C       1.004419    2.269449    0.033664
H      -1.584206    2.005851   -1.396705
H      -1.816828    2.661195    0.243749
H       0.700922    5.200452   -0.048869
H      -0.620284    4.489250    0.919417
H       1.258945    3.278676    2.175653
H       2.767416    2.517656   -1.301222
H       3.055118    1.450829    0.120317
