19

O      -0.407116    0.529477    0.725122
C       0.241410    0.923047   -0.210742
C       1.381653    1.887064   -0.104194
C       1.948386    2.157538    1.270939
C       3.001473    3.272949    1.258074
C       2.463858    4.519873    0.547432
C       2.151773    4.249075   -0.934334
C       1.482015    2.907407   -1.184434
O       2.318644    1.753839   -1.188063
H       0.043945    0.591856   -1.255070
H       1.110341    2.424742    1.925073
H       2.364950    1.227277    1.673086
H       3.284212    3.514374    2.287500
H       3.905869    2.917320    0.751644
H       1.548435    4.849802    1.056110
H       3.176914    5.347035    0.623511
H       1.511573    5.041343   -1.336472
H       3.074979    4.263301   -1.526437
H       0.727960    2.890238   -1.973252
