20

C       1.292681    2.057068    0.624598
C       1.102174    0.562481    0.489097
C       0.984964   -0.265698   -0.733351
N       2.170179   -0.420769    0.224540
C       3.054276    0.140101   -0.865866
C       1.889681    0.122788   -1.898720
O       1.975888   -0.994324   -2.766085
C       1.567151    1.352679   -2.738529
O       2.596588    1.434248   -3.725508
H       1.982454    2.485368   -0.102895
H       0.330693    2.569906    0.517363
H       1.681645    2.288555    1.622147
H       0.471115    0.172156    1.288108
H       0.237004   -1.046146   -0.838824
H       3.528661    1.096306   -0.627106
H       3.818977   -0.593026   -1.123122
H       2.483912   -0.686253   -3.528380
H       0.581403    1.207307   -3.204089
H       1.531556    2.265705   -2.133205
H       2.321090    2.049160   -4.410655
