19

C      -0.014246    1.384117    0.057424
O       0.094092   -0.028935    0.016986
C       0.731364   -0.528751   -1.097207
C       1.700359   -1.653850   -0.957221
C       2.153810   -0.352057   -1.604972
C       1.615445   -0.116295   -3.042366
C       0.736476   -1.165237   -3.635397
O       1.017398   -2.536605   -3.608625
C       0.166031   -0.308358   -2.533808
H       0.972378    1.861920   -0.012976
H      -0.649624    1.774614   -0.749090
H      -0.470655    1.637731    1.016809
H       2.061187   -1.741807    0.064196
H       1.627702   -2.578312   -1.510313
H       2.976454    0.223378   -1.202313
H       2.002332    0.693241   -3.650372
H       0.344297   -0.838517   -4.603576
H       0.175205   -3.005086   -3.596152
H      -0.695138    0.325113   -2.711390
