20

C      -0.114415    1.695324   -0.001252
C       0.020191    0.181165    0.014415
C       1.124659   -0.560812   -0.805974
C       2.435936    0.037361   -0.262291
C       2.102857    0.023500    1.267721
C       0.686490   -0.579021    1.206730
C       0.922463   -1.756180    0.193321
C      -0.226200   -2.606177   -0.064437
N      -1.127479   -3.302609   -0.266949
H       0.824942    2.213973    0.208511
H      -0.469719    2.038219   -0.979033
H      -0.846154    2.022612    0.745278
H      -0.952396   -0.270304   -0.201398
H       1.039284   -0.714654   -1.881417
H       3.303308   -0.580209   -0.510607
H       2.623746    1.041319   -0.649957
H       2.790829   -0.601570    1.843370
H       2.108804    1.019877    1.715700
H       0.162397   -0.751104    2.146541
H       1.798870   -2.384554    0.378434
