23

C       0.006273    1.593461   -0.036862
C      -0.010191    0.065085    0.038166
C      -1.433716   -0.545427   -0.004153
C      -2.117903   -0.139702   -1.234381
C      -2.647958    0.194551   -2.261535
C      -1.436318   -2.094467    0.156168
C      -0.708235   -2.559966    1.424503
C      -2.870246   -2.633854    0.146600
O      -2.807709   -4.054686    0.157287
H       1.032111    1.971680    0.008399
H      -0.447903    1.950872   -0.964898
H      -0.548023    2.035724    0.798839
H       0.575476   -0.356808   -0.787669
H       0.474178   -0.253227    0.965495
H      -1.994715   -0.126660    0.846488
H      -3.128092    0.491028   -3.161049
H      -0.931730   -2.523053   -0.719464
H      -1.086328   -2.033744    2.310229
H      -0.880486   -3.628495    1.568310
H       0.370381   -2.395514    1.369323
H      -3.408230   -2.255034    1.033151
H      -3.397679   -2.269838   -0.744287
H      -3.706968   -4.393116    0.133281
