20

C       0.016855    1.539025   -0.243854
C       0.024587    0.042085   -0.019039
C       1.312326   -0.746715   -0.037905
C       0.533382   -0.602598    1.251672
C       1.092157    0.185544    2.416926
C       2.055693   -0.664765    3.275139
C       2.606493    0.066797    4.409011
C       3.045959    0.695937    5.334475
H       0.912245    2.020670    0.158899
H      -0.020041    1.766805   -1.314904
H      -0.853659    2.011088    0.225583
H      -0.830447   -0.463085   -0.462060
H       1.338267   -1.709414   -0.536841
H       2.235677   -0.180186   -0.123765
H      -0.016758   -1.489689    1.560320
H       1.629744    1.071654    2.065836
H       0.279019    0.550035    3.056088
H       1.529011   -1.557675    3.637198
H       2.871912   -1.032765    2.640677
H       3.440743    1.239766    6.156268
