20

C       0.089571    1.539541    0.160850
C      -0.149762    0.042194   -0.066015
C       0.666129   -0.505602   -1.233915
C       2.221793   -0.575985   -1.136332
O       3.081374    0.253463   -1.051685
C       2.210109   -2.065043   -1.387083
N       1.308703   -2.621384   -0.308684
C       0.707382   -2.029241   -1.509558
C      -0.194529   -2.790379   -2.430358
H       1.149214    1.744516    0.337393
H      -0.218710    2.127399   -0.711120
H      -0.478451    1.900082    1.023762
H       0.106047   -0.524406    0.834477
H      -1.215748   -0.138407   -0.258338
H       0.433846    0.037941   -2.160587
H       2.950785   -2.697596   -1.860940
H       1.327272   -3.634546   -0.437824
H      -1.200293   -2.885435   -2.005392
H      -0.287410   -2.283698   -3.396451
H       0.188213   -3.800556   -2.612184
