21

C       0.792549   -0.252938   -1.340015
C      -0.016394   -0.092834   -0.051913
C       0.704628   -0.623057    1.210442
C      -0.107869   -0.304633    2.485875
C       0.614279   -0.705608    3.786647
C      -0.158928   -0.383388    4.979243
C      -0.817410   -0.107235    5.946306
C       0.981994   -2.055673    1.102861
C       1.183710   -3.238525    1.016632
H       1.022665   -1.304941   -1.531329
H       0.237387    0.135271   -2.199162
H       1.741426    0.292200   -1.282588
H      -0.244333    0.966833    0.114655
H      -0.978412   -0.610161   -0.147305
H       1.669426   -0.098411    1.286769
H      -0.315885    0.770444    2.505992
H      -1.074711   -0.816686    2.437614
H       0.829802   -1.780389    3.762916
H       1.588207   -0.200096    3.835094
H      -1.389307    0.130059    6.808611
H       1.373983   -4.280487    0.939780
