19

C      -0.061264    1.503310    0.053960
C      -0.079782    0.013377   -0.022893
C      -0.095449   -0.781887   -1.098180
C       0.039709   -2.233845   -0.650482
C      -0.613695   -2.179008    0.741191
C       0.062259   -0.883584    1.214558
O       1.449730   -1.187607    1.464866
C       2.128624   -1.630332    0.302994
O       1.424252   -2.596406   -0.447194
H       0.849675    1.852526    0.555613
H      -0.105423    1.963046   -0.937053
H      -0.905109    1.880244    0.645640
H      -0.088593   -0.461891   -2.133702
H      -0.359678   -2.978421   -1.339914
H      -1.699184   -2.066141    0.673553
H      -0.357517   -3.039604    1.361830
H      -0.317038   -0.452872    2.143236
H       2.370203   -0.767510   -0.335186
H       3.050753   -2.106510    0.643778
