23

C      -0.017552    1.568692    0.056385
C      -0.098091    0.045235    0.170149
C      -1.514438   -0.502874   -0.056483
O      -2.027966   -0.115470   -1.334291
C      -1.564030   -2.007710    0.122849
C      -1.883202   -2.738050    1.403551
C      -2.976551   -2.026865    2.213703
C      -3.926775   -2.100522    0.973605
C      -2.823532   -2.827287    0.192778
H       1.012003    1.922970    0.165391
H      -0.397958    1.899303   -0.913508
H      -0.621040    2.053520    0.832130
H       0.577287   -0.421076   -0.562351
H       0.248940   -0.284592    1.157630
H      -2.189281   -0.017264    0.656313
H      -1.575334   -0.644437   -2.000407
H      -0.780142   -2.517019   -0.440892
H      -1.208972   -3.487662    1.801691
H      -3.340965   -2.642257    3.039202
H      -2.735543   -1.035040    2.609977
H      -4.796561   -2.732781    1.163079
H      -4.272083   -1.154939    0.545799
H      -2.986314   -3.660727   -0.480655
