23

C      -0.102724    1.526895   -0.079889
C       0.022099    0.008513   -0.013664
C       1.203682   -0.601309   -0.843793
C       2.083267   -0.446344    0.434073
C       0.758117   -0.583338    1.244798
C       0.643919    0.118002    2.587362
C       0.396091   -2.083869    1.350106
C       0.537614   -2.780115    0.015375
C       0.927712   -2.074363   -1.046102
H       0.849232    2.037705    0.096981
H      -0.459642    1.835059   -1.068892
H      -0.819996    1.899730    0.659553
H      -0.952929   -0.444440   -0.223736
H       1.510286   -0.085565   -1.756037
H       2.863767   -1.194574    0.595446
H       2.514254    0.553272    0.531748
H       0.893155    1.180834    2.512619
H      -0.371635    0.038954    2.994520
H       1.325713   -0.331394    3.319544
H       1.037148   -2.569262    2.101500
H      -0.632301   -2.189836    1.727684
H       0.318711   -3.842516   -0.042707
H       1.048461   -2.521199   -2.028168
