18

C      -0.003269    1.584436    0.017173
C       0.105576    0.059997   -0.120833
C       0.668632   -0.588417    1.113092
C       2.141887   -0.450045    1.535326
O       2.221703   -1.862686    1.852641
C       0.858800   -2.089992    1.437168
C      -0.131269   -1.824884    2.556189
N      -0.695416   -2.519744    3.431046
O      -0.217564   -0.465494    2.281349
H       0.978914    2.041820    0.177678
H      -0.432418    2.025605   -0.886375
H      -0.641409    1.850457    0.864262
H      -0.881871   -0.370472   -0.322779
H       0.747264   -0.200960   -0.970953
H       2.830040   -0.190966    0.721597
H       2.323357    0.192545    2.402338
H       0.733439   -2.951531    0.781545
H      -1.292867   -1.951995    4.035310
