19

C       0.243052    1.322498    0.006169
O       0.084234   -0.076253    0.000937
C      -1.271171   -0.469671    0.011544
C      -1.306028   -1.990866    0.004438
C      -2.734371   -2.527502    0.014836
O      -3.709198   -1.817575    0.028467
N      -2.780352   -3.923282    0.006838
C      -3.886983   -4.770474    0.012789
N      -5.092117   -4.381788    0.029937
H       1.315839    1.530272   -0.002826
H      -0.217607    1.789546   -0.878646
H      -0.201001    1.781001    0.903850
H      -1.789570   -0.081733    0.901485
H      -1.805877   -0.073114   -0.864858
H      -0.776068   -2.366288   -0.880073
H      -0.760343   -2.374920    0.875583
H      -1.887402   -4.390464   -0.005492
H      -3.557634   -5.818068    0.000857
H      -5.710160   -5.191961    0.030661
