17

O       0.382325    0.134211    0.727448
C       0.231137    1.257470    0.332592
N      -0.914506    1.964990   -0.083778
C      -0.154402    3.200523   -0.312170
C       0.577221    3.622356    0.924771
C       1.127014    2.473924    0.068724
N       2.414781    2.563865   -0.507523
C       3.440581    1.655728    0.023230
C       2.869235    1.442263   -1.334237
H      -1.784190    1.936832    0.437874
H      -0.341417    3.815218   -1.181598
H       1.178654    4.523259    0.845349
H       0.148701    3.432864    1.904797
H       4.426973    2.093879    0.143701
H       3.139270    0.954546    0.796341
H       2.201199    0.594498   -1.460612
H       3.432428    1.724664   -2.218597
