17

C       0.070404    1.589993   -0.147291
C       0.106518    0.081134    0.010925
C       1.042323   -0.756878   -0.899699
C       1.321039   -1.700360    0.306916
C       2.653289   -2.248383    0.483526
N       3.715279   -2.686836    0.608875
C       0.811314   -0.559571    1.267975
C       1.864970    0.264223    1.838072
N       2.687783    0.942898    2.284072
H       1.071091    2.024083   -0.066204
H      -0.338970    1.856602   -1.127151
H      -0.560856    2.054877    0.616819
H      -0.908219   -0.327987   -0.029742
H       0.619111   -1.216090   -1.793834
H       1.940952   -0.197405   -1.171155
H       0.596084   -2.518375    0.330754
H       0.152449   -0.896870    2.070972
