17

C      -0.109838    1.570443   -0.028594
C       0.033704    0.068933    0.027389
O      -1.107162   -0.618720   -0.399243
C       1.348604   -0.688848   -0.235355
C       2.622745    0.058951   -0.077264
C       2.809543    0.492912    1.180435
C       1.677391    0.060603    2.045467
O       1.541084    0.258914    3.231375
C       0.718542   -0.693810    1.142451
H       0.798558    2.087723    0.279829
H      -0.344133    1.887461   -1.053085
H      -0.930488    1.888318    0.621389
H      -1.396031   -0.230207   -1.232822
H       1.280187   -1.540863   -0.900734
H       3.287149    0.252963   -0.912440
H       3.629103    1.093434    1.552368
H       0.178626   -1.543235    1.540434
