17

C       0.109930    1.197510   -0.306973
C      -0.133048   -0.264226    0.094719
O       0.483689   -0.582469    1.338001
C      -1.564468   -0.590576    0.095285
C      -2.743543   -0.836345    0.121645
C      -4.162310   -1.162384    0.146039
O      -4.460113   -2.407618   -0.513252
C      -4.271412   -3.532215    0.209708
O      -4.455740   -4.620716   -0.241328
H       1.183647    1.400637   -0.297641
H      -0.284937    1.398073   -1.306917
H      -0.383603    1.876355    0.396303
H       0.366145   -0.916648   -0.631766
H       0.022094   -0.090904    2.026686
H      -4.532758   -1.189655    1.179428
H      -4.747793   -0.412775   -0.392646
H      -3.945228   -3.329533    1.248253
