15

O       0.367091    0.023964    0.568464
C       0.101378    1.154292    0.270956
N      -0.970695    1.941519    0.628641
C      -0.881853    3.204719    0.026587
C       0.258732    3.178336   -0.680861
O       0.874805    1.954394   -0.557255
C      -1.894824    4.251855    0.226886
C      -2.104599    5.294477   -0.807532
N      -3.133259    4.266683   -0.593297
H      -1.723672    1.597287    1.198581
H       0.759643    3.920146   -1.277139
H      -2.084866    4.515189    1.265800
H      -2.384274    6.297630   -0.501230
H      -1.502248    5.245615   -1.709992
H      -3.055384    3.562051   -1.324190
