21

C       0.011198    1.471730   -0.068496
C      -0.050047   -0.037933    0.032438
C      -0.320615   -0.671274    1.384872
C       1.045361   -0.790957    0.739328
O       1.491916   -2.003158    0.181065
C       0.949653   -2.303749   -1.101119
C       0.866288   -1.049871   -2.017833
C      -0.467376   -0.746264   -1.258612
C      -0.601158   -2.284855   -1.078920
H       0.604074    1.790380   -0.933888
H      -0.993592    1.896860   -0.179597
H       0.461396    1.915028    0.825099
H      -0.403607   -0.002959    2.236442
H      -0.938501   -1.557047    1.457936
H       1.868661   -0.247191    1.194007
H       1.478880   -3.193830   -1.443978
H       1.675967   -0.319058   -1.952349
H       0.704313   -1.337547   -3.059430
H      -1.271190   -0.214977   -1.774352
H      -1.011130   -2.743793   -1.982589
H      -1.111296   -2.695662   -0.206648
