19

C       0.047484    1.509576    0.009763
C       0.036593    0.053160    0.022014
C       0.039373   -1.151433    0.032431
C       0.018225   -2.610515    0.035144
C      -1.405012   -3.221596    0.012183
C      -1.322087   -4.745040   -0.137705
C      -2.206810   -2.825574    1.256635
H       0.852959    1.897312   -0.624104
H      -0.896144    1.912924   -0.374541
H       0.194552    1.917663    1.016082
H       0.579210   -2.983417   -0.832176
H       0.550236   -2.986460    0.921076
H      -1.916937   -2.814200   -0.869375
H      -0.801458   -5.195292    0.716320
H      -2.320934   -5.190210   -0.187194
H      -0.781613   -5.031371   -1.046386
H      -3.228719   -3.215108    1.205518
H      -1.742151   -3.229851    2.164517
H      -2.258772   -1.738532    1.361974
