21

C       0.079820    1.507408   -0.101079
C       0.035270   -0.017366    0.077422
C       0.740461   -0.446346    1.371177
C      -1.403646   -0.546188    0.028341
O      -2.207154   -0.073310    1.095616
C      -2.157219   -0.481413   -1.364762
C      -2.281444   -2.007109   -1.308686
O      -0.948900   -2.536064   -1.222151
C      -1.578806   -2.080955   -0.022331
H       1.114408    1.860097   -0.151639
H      -0.425439    1.828610   -1.018249
H      -0.388582    2.025007    0.745507
H       0.552120   -0.478096   -0.772199
H       0.205484   -0.068760    2.247932
H       0.792414   -1.536589    1.453434
H       1.764675   -0.061685    1.401863
H      -2.294402    0.881641    1.006756
H      -3.115931    0.031026   -1.255536
H      -1.610303   -0.088374   -2.225486
H      -3.040091   -2.652719   -1.734818
H      -1.667055   -2.769999    0.809369
