21

C      -0.385622    1.457496   -0.204484
C       0.201947    0.078075    0.125572
C       0.954586   -0.520500   -1.037020
C       2.279858    0.100541   -1.495479
C       2.991108   -1.047058   -2.178530
C       2.283908   -2.176457   -2.125211
C       0.972739   -1.950137   -1.432463
C       0.242564   -3.086866   -0.774348
O       0.152465   -0.978563   -2.139532
H       0.399520    2.183129   -0.440946
H      -1.053078    1.389685   -1.068595
H      -0.958507    1.850780    0.640439
H       0.879269    0.154712    0.985774
H      -0.607175   -0.598887    0.416859
H       2.113314    0.942852   -2.177784
H       2.855058    0.489601   -0.644521
H       3.947183   -0.924879   -2.675169
H       2.574260   -3.134349   -2.540669
H       0.885153   -3.588218   -0.042693
H      -0.661505   -2.740352   -0.269855
H      -0.055789   -3.830174   -1.522182
