14

O      -0.154197    0.012425   -0.261020
C      -0.076194    1.203562   -0.066226
C       1.199733    1.919462    0.013707
C       1.398975    3.229694    0.172019
C       2.865725    3.528965    0.163961
O       3.495569    2.292460   -0.173986
C       2.549904    1.230441   -0.100818
C       2.827822    0.363898    1.066185
N       3.059468   -0.295118    1.985844
H      -0.978988    1.839140    0.053249
H       0.631147    3.983605    0.296820
H       3.143592    4.282637   -0.584238
H       3.210696    3.892908    1.144779
H       2.627641    0.614503   -1.004470
