13

O      -0.117784    0.191516   -0.705410
C      -0.100514    1.247985   -0.175760
C      -1.086627    2.137205    0.570885
C      -0.093896    3.327765    0.457490
C       1.050368    2.379271   -0.080090
C       2.038498    2.030025    0.930746
N       2.773575    1.735988    1.772731
C       1.649725    2.743663   -1.352691
N       2.067464    3.037916   -2.388989
H      -2.063323    2.241566    0.093640
H      -1.237258    1.782812    1.595668
H      -0.377855    4.058207   -0.299415
H       0.157260    3.837645    1.385491
