22

C      -0.045796    1.536490    0.015275
C       0.089020    0.008217   -0.044607
C       0.812192   -0.431925   -1.325787
C       0.739945   -0.532900    1.238833
C       0.762913   -2.053641    1.360382
O       2.097352   -0.023663    1.274953
C       2.648975    0.140130    2.501216
N       3.946009    0.555924    2.372774
O       2.092601   -0.075293    3.553714
H       0.939310    2.011769    0.052019
H      -0.570676    1.917191   -0.866473
H      -0.604136    1.853660    0.902579
H      -0.922778   -0.420035   -0.058257
H       1.844453   -0.069375   -1.333143
H       0.836373   -1.520241   -1.431292
H       0.305866   -0.025409   -2.206956
H       0.216409   -0.119648    2.106245
H      -0.251882   -2.454942    1.272096
H       1.384036   -2.508005    0.583760
H       1.159872   -2.339883    2.336792
H       4.250700    0.922688    1.487223
H       4.379432    0.913460    3.206491
