15

C      -0.127165    1.548869    0.033359
C       0.070035    0.067639    0.026620
N      -0.803609   -0.902207    0.722731
C       0.644181   -0.869531    1.018191
C       1.369046   -1.658438   -0.137314
O       0.403512   -2.101053   -1.092746
C       0.788084   -0.735951   -1.129704
C       2.644622   -2.289893   -0.063722
N       3.688467   -2.776374    0.046082
H       0.778907    2.068102   -0.297321
H      -0.944962    1.841687   -0.634810
H      -0.367179    1.905705    1.040180
H      -1.267763   -0.396959    1.478564
H       1.049081   -0.702519    2.006891
H       1.207317   -0.340519   -2.047489
