19

O       0.771439   -0.346006    1.213446
C       0.131469   -0.020798   -0.005903
C      -1.294565   -0.568257   -0.029850
O      -1.893889    0.043571    1.083980
C      -2.068985   -0.565328   -1.415419
C      -1.260245   -1.865704   -1.748063
C      -1.474800   -2.134245   -0.220138
C      -3.006038   -2.223664   -0.194653
C      -3.392928   -1.201274   -0.971839
H       0.144970   -0.099438    1.904713
H       0.073537    1.070220   -0.152041
H       0.749977   -0.432476   -0.803673
H      -2.786248   -0.320025    1.158520
H      -2.095477    0.304231   -2.071846
H      -1.747675   -2.566550   -2.427149
H      -0.223893   -1.704103   -2.048742
H      -0.887690   -2.855757    0.345285
H      -3.600954   -2.954062    0.335624
H      -4.386672   -0.872075   -1.241107
