14

O      -0.081193    0.002087    0.024270
C      -0.067703    1.197845    0.014084
N      -1.037858    2.157853   -0.082974
C      -0.157477    3.320668    0.027011
C       1.046897    2.317613    0.085751
C       1.886752    2.339572    1.253776
C       2.587262    2.350342    2.241308
C       3.371526    2.365333    3.351944
C       4.068804    2.381117    4.337835
H      -2.041173    2.076756   -0.153385
H      -0.163804    3.978719   -0.846587
H      -0.293429    3.904578    0.940703
H       1.640927    2.323939   -0.833560
H       4.681369    2.390261    5.205001
