15

C       0.006046    1.504606   -0.029899
C       0.003362    0.011826    0.024048
N      -0.031247   -0.696440   -1.081498
O      -0.023942   -2.025255   -0.703878
C       0.015766   -2.080325    0.646913
C       0.030213   -3.354082    1.262636
N       0.043111   -4.378390    1.802147
C       0.035158   -0.826122    1.184353
C       0.078696   -0.421155    2.619825
H       0.904358    1.911549    0.446094
H      -0.023820    1.841286   -1.067372
H      -0.860060    1.916622    0.498533
H       0.969748    0.178870    2.834596
H      -0.792615    0.187335    2.885641
H       0.093499   -1.295481    3.274325
