17

C      -0.275018    1.600233    0.046258
C      -0.032014    0.097842    0.018830
C      -1.289619   -0.694098   -0.323522
O       0.958063   -0.170322   -1.030672
C       1.959864   -0.852401   -0.453196
N       1.940847   -1.104908    0.791390
C       0.689970   -0.500696    1.291880
C       0.973795    0.476854    2.349562
N       1.171286    1.250904    3.184028
H       0.648239    2.144771    0.256058
H      -0.663863    1.929289   -0.921020
H      -1.004089    1.857073    0.819519
H      -1.694764   -0.372034   -1.286361
H      -1.070957   -1.764472   -0.379861
H      -2.054352   -0.536751    0.443658
H       2.753299   -1.153812   -1.128644
H       0.068578   -1.284587    1.740278
