18

O       0.400823    0.948228   -0.513539
C       0.105025   -0.230476    0.186389
C      -0.081691   -0.076514    1.714009
C      -1.286640   -1.066102    1.639367
C      -1.329791   -0.785409    0.135025
C      -2.424209   -0.131867   -0.628839
C      -1.970105   -1.538901   -1.014737
C      -1.176357   -1.704495   -2.199034
N      -0.491496   -1.801622   -3.127969
H       0.696994    0.708317   -1.398280
H       0.828003   -1.024585   -0.045579
H       0.760993   -0.340603    2.354740
H      -0.412068    0.938875    1.945325
H      -0.997036   -2.095053    1.870530
H      -2.178725   -0.810931    2.214954
H      -3.408142   -0.055964   -0.178268
H      -2.151301    0.682301   -1.291123
H      -2.637280   -2.363269   -0.786006
