18

C      -0.080837    1.403082    0.011024
O       0.009164   -0.003255    0.003000
C      -1.245491   -0.631916    0.010280
C      -1.070748   -2.111517    0.001926
C       0.056752   -2.825413   -0.009076
C      -0.277230   -4.252544   -0.013635
N       0.525927   -5.230983   -0.023710
O      -1.653340   -4.365739   -0.004871
C      -2.237501   -3.064911    0.005187
H       0.939453    1.792008    0.004494
H      -0.613385    1.782684   -0.874988
H      -0.598461    1.773455    0.909696
H      -1.833121   -0.331071    0.898847
H      -1.847622   -0.322709   -0.865607
H       1.070071   -2.457017   -0.014225
H       0.012402   -6.113763   -0.024450
H      -2.871288   -2.958072    0.896839
H      -2.883019   -2.949599   -0.876945
