18

O      -0.129101    0.058081    0.501071
C      -0.005176    1.210317    0.140838
N       1.163231    1.797655   -0.228534
C       2.442848    1.123561   -0.209270
C       3.178714    1.127227   -1.594868
C       4.378072    1.998055   -1.175378
C       4.849201    1.347858    0.143988
C       3.496040    1.950747    0.565386
O       3.731297    3.048982   -0.377296
H      -0.856578    1.916211    0.071469
H       1.167906    2.771580   -0.492469
H       2.272685    0.127982    0.199456
H       3.467442    0.129144   -1.933139
H       2.573921    1.600595   -2.370926
H       5.056009    2.377147   -1.938976
H       4.988464    0.264679    0.184952
H       5.687942    1.880527    0.592309
H       3.253272    2.270869    1.578181
