23

C      -0.020065    1.551481   -0.094065
C       0.003343    0.035786    0.067899
O       0.630952   -0.240664    1.309648
C      -1.405861   -0.575542   -0.006934
C      -1.425976   -2.109980    0.018058
O      -0.793379   -2.628870    1.206778
C      -2.818262   -2.673122   -0.149589
C      -3.340427   -3.011640   -1.524847
C      -3.003880   -4.112485   -0.552199
H       0.992783    1.951213    0.005353
H      -0.414798    1.838695   -1.073526
H      -0.641725    2.008271    0.683071
H       0.598525   -0.392968   -0.760564
H       0.483981   -1.181979    1.482013
H      -2.003231   -0.188753    0.831338
H      -1.897738   -0.244725   -0.930050
H      -0.793503   -2.487382   -0.795978
H      -1.386686   -2.461110    1.948317
H      -3.547562   -2.265643    0.549019
H      -4.383458   -2.810132   -1.741211
H      -2.676500   -2.859206   -2.369748
H      -2.108880   -4.697753   -0.733652
H      -3.817532   -4.671805   -0.104436
