19

O       0.844871    1.245250   -0.563245
C       0.362737   -0.010651   -0.256302
C      -1.007331   -0.173027    0.349079
C       0.179951   -0.792859    1.031378
O       0.519668   -2.026732    0.394008
C       0.884058   -1.327528   -0.839371
C       0.363307   -1.936362   -2.110032
C      -0.912124   -1.502771   -2.785916
C       0.419445   -1.120807   -3.380820
H       1.800025    1.244554   -0.429526
H      -1.361288    0.744523    0.810180
H      -1.771045   -0.806608   -0.090016
H       0.478641   -0.641233    2.061496
H       1.985025   -1.291934   -0.885583
H       0.623190   -2.987468   -2.207199
H      -1.500166   -2.265138   -3.284947
H      -1.497452   -0.712743   -2.332267
H       0.719656   -0.081658   -3.290872
H       0.748454   -1.605963   -4.292890
