18

C       0.121427    1.670956    0.023301
C       0.304090    0.154533   -0.010471
C       1.002343   -0.346766   -1.268534
O       1.273452    0.371036   -2.201268
C       1.359585   -1.822626   -1.226908
C       2.289426   -2.068463   -0.031678
N       1.725698   -1.500404    1.184946
C       0.955833   -0.372097    1.288252
O       0.744525    0.160011    2.359391
H       1.087846    2.178718   -0.033162
H      -0.475890    1.999484   -0.829217
H      -0.368473    1.960946    0.953036
H      -0.686642   -0.328914   -0.013928
H       0.444868   -2.413715   -1.099350
H       1.844629   -2.109161   -2.161343
H       2.430425   -3.143123    0.118759
H       3.278202   -1.637818   -0.247408
H       2.140052   -1.774381    2.064960
