20

C       0.072657    1.454398   -0.159232
N      -0.033260    0.024296    0.052694
C      -1.416280   -0.484370    0.033508
C      -1.537959   -1.548654    1.132279
O      -0.570413   -2.557650    0.947301
C       0.753767   -2.014667    1.052836
C       0.651901   -0.497377    1.238841
C      -0.162527   -0.243045    2.517969
O      -1.410359   -0.942569    2.403521
H       1.127235    1.748257   -0.184124
H      -0.367370    1.710112   -1.128815
H      -0.437777    2.067575    0.607313
H      -2.148688    0.309081    0.247858
H      -1.661561   -0.917308   -0.944704
H      -2.511297   -2.041376    1.120354
H       1.261186   -2.479686    1.908467
H       1.306459   -2.250247    0.136824
H       1.647956   -0.051794    1.311235
H       0.365440   -0.614570    3.405972
H      -0.357284    0.827950    2.663487
