21

O      -0.013006    1.162923   -0.483551
C      -0.248192   -0.213465   -0.278036
C      -1.696010   -0.513929    0.196570
C      -2.724309   -0.102370   -0.891308
C      -2.721178   -1.267687   -1.905672
C      -2.225909   -2.521371   -1.126512
C      -1.925112   -2.043547    0.313258
C      -1.905007    0.193523    1.457388
C      -2.032932    0.808294    2.484685
H      -0.214097    1.607980    0.349141
H      -0.067994   -0.699644   -1.241550
H       0.456414   -0.640856    0.451803
H      -3.709349    0.002485   -0.426599
H      -2.460345    0.860787   -1.333254
H      -3.714694   -1.417593   -2.336049
H      -2.052538   -1.048475   -2.743117
H      -2.968570   -3.323409   -1.124213
H      -1.327474   -2.935026   -1.593845
H      -1.070493   -2.554166    0.767659
H      -2.786177   -2.218650    0.965106
H      -2.171274    1.331971    3.398295
