16

C       0.220759    1.538008    0.060457
C      -0.084291    0.049752   -0.004212
C       0.820825   -0.808418   -0.946303
N       1.218880   -1.591634    0.224595
C       0.429724   -0.822950    1.184559
C       2.089505   -2.602726    0.422293
O       2.337070   -3.097546    1.503983
H       1.284071    1.713990    0.257756
H      -0.033075    2.035356   -0.881706
H      -0.351826    2.022130    0.858541
H      -1.146015   -0.113116   -0.202769
H       0.295443   -1.382531   -1.717513
H       1.643377   -0.254035   -1.414983
H       1.039508   -0.290589    1.923677
H      -0.323383   -1.415817    1.713083
H       2.556100   -2.938305   -0.527871
