23

C       0.326062    1.274602    0.232611
O      -0.130754   -0.003944   -0.165062
C       0.605063   -0.583001   -1.214159
C       0.405989    0.094531   -2.557715
C       1.962569   -1.171267   -0.952697
C       2.041828   -1.758737    0.463352
C       0.873078   -2.742142    0.117155
C      -0.336319   -2.860259    1.037722
C       0.733609   -2.072747   -1.259457
H       1.406503    1.274390    0.434097
H       0.113717    2.045797   -0.520918
H      -0.207946    1.531772    1.150730
H       0.786105    1.121178   -2.555288
H       0.932593   -0.448583   -3.347191
H      -0.658561    0.125623   -2.810979
H       2.815143   -0.945762   -1.584056
H       2.983579   -2.271592    0.668872
H       1.843477   -1.051801    1.273995
H       1.303595   -3.737659   -0.037417
H      -0.783508   -1.883426    1.227712
H      -1.102262   -3.504450    0.590339
H      -0.049963   -3.308314    1.996455
H       0.492427   -2.607276   -2.173060
