17

C       0.003089   -1.195524    0.095960
C       0.022846    0.005503    0.047668
C       0.017429    1.444764   -0.037640
C      -1.186068    2.096583   -0.718413
C      -0.753328    3.267047   -1.607103
O       0.144515    4.133330   -0.937161
C       1.398626    3.529171   -0.713758
C       1.300658    2.190926   -0.013375
O       0.482369    2.132719    1.144931
H      -0.007449   -2.256210    0.150139
H      -1.720371    1.354816   -1.318868
H      -1.866938    2.444876    0.064711
H      -0.288157    2.883898   -2.531164
H      -1.615381    3.875742   -1.892422
H       1.940560    3.379014   -1.664619
H       1.976705    4.229338   -0.101594
H       2.231324    1.625394    0.047164
