18

C      -0.544743    1.235872   -0.445786
O       0.399659    1.811917    0.454379
C       0.433053    0.392655    0.256772
C       0.040062   -0.448811    1.438313
C      -0.192165   -1.946021    1.307000
C       1.100061   -2.667825    1.530683
C       2.193980   -1.653829    1.805690
C       1.070137   -0.874590    2.515193
N       0.282179   -2.214657    2.709066
H      -1.580830    1.249589   -0.108843
H      -0.396550    1.472952   -1.498448
H       1.295694    0.050117   -0.315599
H      -0.819917    0.009249    1.937652
H      -1.065446   -2.449795    0.907323
H       1.206597   -3.721601    1.298539
H       2.907327   -2.047821    2.533932
H       2.736877   -1.186310    0.978132
H       1.271336   -0.238920    3.374350
