19

C      -0.057803    1.560205   -0.030439
C       0.051515    0.035319   -0.091974
N       0.868819   -0.364099   -1.232889
C       1.878900   -1.075128   -1.038176
C       2.647535   -1.702601    0.139154
O       1.892277   -2.551217    0.970048
C       3.559512   -2.297047   -0.939289
C       2.778407   -3.012414   -1.959464
N       2.827010   -1.524949   -2.044394
H       0.921118    2.015400    0.150613
H      -0.441827    1.954729   -0.975178
H      -0.731337    1.864458    0.776918
H       0.424555   -0.365362    0.860536
H      -0.948227   -0.389059   -0.247683
H       3.171481   -0.926651    0.715215
H       2.452411   -2.853678    1.692838
H       4.642965   -2.305190   -0.910120
H       3.319772   -3.491743   -2.768128
H       1.839908   -3.485449   -1.684545
