15

C      -0.025437    1.403366    0.034774
O      -0.006497   -0.015307    0.020409
C       0.600625   -0.573393   -1.045081
C       1.208702    0.012723   -2.128852
O       1.689607   -0.939465   -2.965748
C       1.389230   -2.146638   -2.417976
C       1.789614   -3.362184   -3.109651
O       2.384710   -3.410186   -4.162194
C       0.718988   -1.978198   -1.233598
H       0.993885    1.811376    0.043233
H      -0.563389    1.799523   -0.836567
H      -0.543356    1.699512    0.947478
H       1.369687    1.033603   -2.428210
H       1.486642   -4.280853   -2.560851
H       0.354031   -2.751855   -0.576622
