16

C       0.319260    1.416648   -0.407967
C       0.101168   -0.040966   -0.070914
N       1.300143   -0.874668    0.030182
C       0.544445   -0.605411    1.258866
C       1.163513    0.239848    2.250584
N       1.625892    0.929628    3.054980
C      -1.108981   -0.778771   -0.623540
N      -2.089230   -0.014617   -1.163711
O      -1.165735   -1.996770   -0.575211
H       1.263520    1.760229    0.017004
H       0.365391    1.560473   -1.492261
H      -0.476938    2.048863    0.000653
H       1.044105   -1.815283   -0.276357
H      -0.065996   -1.409043    1.660009
H      -2.043464    0.987623   -1.196052
H      -2.905068   -0.478451   -1.528649
