18

C       0.051862    1.448922    0.015312
N       0.088659   -0.004742    0.026322
C       0.584558   -0.628617   -0.945485
C       0.711271   -2.133461   -1.051807
C       0.891748   -2.354375   -2.569581
C       1.619252   -1.046656   -2.962309
O       1.093561   -0.048178   -2.086944
C       1.604003   -3.560801   -2.951946
C       2.209512   -4.549953   -3.267193
H       0.535181    1.822624    0.924996
H       0.532603    1.909601   -0.854613
H      -0.992445    1.779930    0.055572
H       1.603005   -2.470075   -0.511862
H      -0.153354   -2.640206   -0.624875
H      -0.097347   -2.349029   -3.043978
H       2.701319   -1.144868   -2.812451
H       1.428052   -0.737369   -3.991736
H       2.737578   -5.427996   -3.546531
