13

N      -0.096492    1.163275   -0.581038
C      -0.029369    0.021671   -0.018612
C      -1.284454   -0.673446    0.333943
C      -1.485933   -1.993879    0.165130
C      -0.506487   -2.916828   -0.379241
N       0.780339   -2.844680   -0.363845
C       1.451687   -1.807765    0.269330
N       1.169056   -0.568018    0.412275
H       0.849300    1.524689   -0.731046
H      -2.097244   -0.036805    0.671597
H      -2.474799   -2.405273    0.349676
H      -0.919585   -3.811886   -0.851774
H       2.417127   -2.131059    0.662205
