18

C      -0.792841    1.351086    0.039098
C       0.076111    0.092659    0.010575
N       1.057691    0.199281   -1.068120
C       2.196156   -0.561050   -1.202816
O       2.768836   -0.724389   -2.249913
O       2.694260   -1.109179   -0.061869
C       2.162079   -0.780691    1.202673
C       2.052115    0.651182    1.646483
C       0.809201   -0.155421    1.312411
H      -0.183445    2.236748    0.239362
H      -1.307601    1.492970   -0.917573
H      -1.555683    1.267345    0.818648
H      -0.580767   -0.775321   -0.164523
H       0.708408    0.498265   -1.966680
H       2.473945   -1.534528    1.914989
H       2.257778    0.880570    2.685804
H       2.359071    1.414923    0.940672
H       0.171513   -0.472488    2.131308
