10

O      -0.051538    0.001217    0.002150
C      -0.031592    1.198704    0.008258
C       1.319597    1.959477   -0.001206
O       2.373506    1.382552   -0.014343
C       1.240888    3.446817    0.008689
N       0.129865    4.135116    0.023390
O       0.499759    5.413014    0.027841
N       1.930510    5.465387    0.014255
N       2.343746    4.290863    0.003177
H      -0.946270    1.822232    0.021018
