15

C      -0.042158    1.434699    0.058672
N       0.043950   -0.004231   -0.072936
C       0.633348   -0.618490   -1.103928
N       1.189835    0.035988   -2.095343
C       1.751406   -0.727211   -3.075407
N       1.805619   -2.024408   -3.152310
N       1.216806   -2.670301   -2.103816
C       0.602092   -2.102574   -1.027234
O       0.086515   -2.725306   -0.108288
H       0.955360    1.885312    0.087220
H      -0.581703    1.873069   -0.787241
H      -0.569942    1.672530    0.983092
H      -0.344106   -0.626194    0.621651
H       2.213443   -0.192874   -3.898532
H       1.249977   -3.679813   -2.147698
