20

C      -0.517747    1.510611   -0.114528
C       0.323875    0.254935    0.177386
C       1.009894   -0.263252   -1.001295
C       1.563188   -0.680155   -1.988295
C       2.232978   -1.137207   -3.185855
C       3.603755   -1.872359   -3.122712
C       2.797174   -3.064279   -2.569221
N       1.885999   -2.568416   -3.712551
C       3.202248   -2.429792   -4.500973
H       0.110837    2.320226   -0.495209
H      -1.284528    1.298138   -0.864233
H      -1.012516    1.857795    0.797371
H       1.062061    0.480235    0.958094
H      -0.320682   -0.530687    0.592426
H       2.136672   -0.396281   -3.986427
H       4.565348   -1.468231   -2.787982
H       3.189686   -4.069687   -2.741478
H       2.346395   -2.970437   -1.580332
H       3.137536   -1.737581   -5.345467
H       3.621004   -3.392059   -4.804332
