21

C       0.000969    1.549165    0.020779
C       0.052962    0.047336    0.005253
C      -0.847542   -0.813676    0.844181
C       0.642996   -0.951130    1.017339
C       1.288997   -1.771783   -0.121355
C       0.475586   -2.926606   -0.782028
C      -0.102838   -1.922972   -1.835128
C       0.692884   -0.765189   -1.154620
O       1.470212    0.078826   -1.954000
H       0.947188    1.979199   -0.317682
H      -0.791067    1.928948   -0.636034
H      -0.204819    1.915030    1.032357
H      -1.347141   -0.280376    1.648020
H      -1.451784   -1.611808    0.423897
H       1.114198   -0.751744    1.973342
H       2.368871   -1.897357   -0.034359
H       1.103967   -3.703735   -1.223597
H      -0.259845   -3.413405   -0.137764
H       0.257380   -2.115163   -2.851357
H      -1.189962   -1.815870   -1.878846
H       1.989674   -0.466229   -2.554143
