19

O      -0.017275    1.494528    0.217542
C       0.014710    0.098073    0.025189
C       0.309435   -0.362855   -1.443930
C      -1.053547   -1.069351   -1.445194
O      -1.608706   -1.798938   -2.216048
C      -1.414551   -0.545091   -0.045699
C      -1.482761   -1.624846    1.046367
C      -0.005460   -2.010253    1.275076
C       0.755067   -0.676833    1.131692
H       0.889361    1.819991    0.214870
H       0.335065    0.482995   -2.138703
H       1.178552   -1.003335   -1.623498
H      -2.249217    0.159891   -0.043416
H      -1.909034   -1.195728    1.959893
H      -2.108601   -2.472056    0.752828
H       0.165084   -2.490728    2.241917
H       0.319810   -2.719366    0.504102
H       1.822322   -0.809228    0.924528
H       0.661836   -0.093213    2.054914
