20

C      -0.067812    1.556336   -0.047850
C      -0.018697    0.043519    0.059236
O       0.563721   -0.448773   -1.174080
C       1.120460   -1.681097   -1.134709
N       1.284680   -2.461871   -0.152465
C       0.835278   -2.015548    1.175822
C       1.720761   -2.645308    2.250378
C       0.792713   -0.478918    1.253720
O       2.089837    0.098850    1.292729
H       0.944284    1.965620   -0.042977
H      -0.574760    1.856465   -0.968388
H      -0.615261    1.972808    0.803211
H      -1.036289   -0.365373    0.122460
H       1.461789   -1.961630   -2.130445
H      -0.189713   -2.385807    1.319543
H       2.745040   -2.272199    2.176321
H       1.344660   -2.408340    3.250872
H       1.737460   -3.730578    2.125856
H       0.300546   -0.158795    2.178687
H       2.610249   -0.291668    0.581001
