18

C      -0.063265    1.455364    0.149645
C       0.025830   -0.040026   -0.067194
O       1.097819   -0.598849   -0.233585
C      -1.254982   -0.792761   -0.048782
C      -1.358328   -2.044680   -0.922169
C      -1.254781   -2.216996    0.546813
N      -0.075558   -2.744255    1.144812
C      -0.108763   -3.414040    2.328994
O      -1.114117   -3.700725    2.945590
H       0.933514    1.896600    0.128725
H      -0.689172    1.913663   -0.624592
H      -0.543656    1.667465    1.111782
H      -2.156064   -0.208382    0.099575
H      -2.308253   -2.234243   -1.408458
H      -0.475408   -2.265534   -1.512601
H      -2.135032   -2.497101    1.111161
H       0.807540   -2.448231    0.750971
H       0.908565   -3.689916    2.667196
