21

C       0.114390    1.495051    0.258811
C       0.159043    0.000416    0.049704
C      -0.939433   -0.873033    0.613290
C       0.462282   -0.973379    1.168904
C       1.354495   -2.095577    0.627121
C       1.153665   -2.012652   -0.918821
C       0.848357   -0.528357   -1.205724
C       2.747146   -1.883682    1.015531
C       3.892464   -1.698836    1.332522
H       1.121081    1.928063    0.227351
H      -0.483128    1.988056   -0.517436
H      -0.329419    1.749989    1.226533
H      -1.676250   -0.387337    1.244738
H      -1.342752   -1.689721    0.022920
H       0.647719   -0.626980    2.179320
H       1.037333   -3.078489    0.998036
H       2.026039   -2.380936   -1.461341
H       0.306418   -2.643005   -1.203122
H       0.247088   -0.400002   -2.112929
H       1.781584    0.028535   -1.354337
H       4.903674   -1.543697    1.616338
