20

C      -0.239127    1.464789   -0.111120
N       0.020008    0.034571    0.028828
C       1.394322   -0.415397   -0.165513
C       0.772874   -0.459507    1.186315
C       1.267539    0.417384    2.303078
C       0.224647    0.835363    3.335542
O       0.753139    1.720390    4.296435
C       2.678912    0.354193    2.710608
O       2.176302    1.479294    1.965196
H       0.569076    2.111663    0.254715
H      -0.400003    1.679544   -1.172339
H      -1.161455    1.717296    0.422404
H       1.523557   -1.326708   -0.743775
H       2.157838    0.345510   -0.316701
H       0.399397   -1.415503    1.555196
H      -0.637690    1.275289    2.809902
H      -0.137858   -0.050240    3.869562
H       1.234764    2.391917    3.795690
H       2.941581    0.576787    3.741089
H       3.363388   -0.288332    2.161454
