22

C       0.101905    1.541282    0.142977
C       0.013567    0.013957    0.168161
O       0.457267   -0.504272    1.419088
C      -1.390890   -0.489642   -0.203313
C      -1.486488   -1.999049   -0.282899
C      -1.833729   -2.835604    0.923465
C      -2.800008   -2.752540   -0.233625
C      -4.140978   -2.065256   -0.088281
H       1.106027    1.866626    0.427927
H      -0.124778    1.939166   -0.851686
H      -0.612896    1.983488    0.848897
H       0.730761   -0.393117   -0.556655
H      -0.149209   -0.186115    2.096945
H      -2.106852   -0.094736    0.530677
H      -1.669988   -0.043585   -1.168084
H      -0.740985   -2.434058   -0.945758
H      -1.289027   -3.756364    1.100533
H      -2.103932   -2.305239    1.832051
H      -2.835008   -3.632469   -0.871768
H      -4.094062   -1.216769    0.600434
H      -4.509098   -1.691145   -1.050667
H      -4.891202   -2.760494    0.304848
