11

C      -0.011880    1.491399   -0.021916
C      -0.060729    0.002965    0.013419
N      -1.129614   -0.650930   -0.252915
C      -1.083963   -2.044254   -0.195304
O      -2.003901   -2.765964   -0.420025
O       0.138137   -2.618463    0.153196
N       1.279788   -1.825772    0.434325
N       1.180658   -0.598962    0.367106
H       0.751021    1.818125   -0.736869
H      -0.984995    1.895066   -0.297021
H       0.294817    1.873373    0.957860
