11

O       0.074146   -0.167638    0.092046
C       0.047177    0.993470   -0.203934
C       1.273973    1.910829   -0.108620
C       1.324444    2.898838   -1.169963
C       1.343050    3.703533   -2.070301
C       1.344921    4.668152   -3.142168
O       2.338218    5.203804   -3.575418
H      -0.878717    1.498599   -0.552462
H       1.207495    2.425035    0.862813
H       2.175104    1.290017   -0.077469
H       0.339355    4.890303   -3.552995
