14

O      -0.147950    0.148415    0.568558
C      -0.024152    1.238047    0.121481
O      -1.026605    2.065769   -0.364593
C      -0.071895    3.121758   -0.692955
C       0.091081    4.141902    0.463028
C       1.227634    3.263333    1.069150
C       1.087507    2.252948   -0.113986
C      -0.183293    3.571960   -2.062154
N      -0.238914    3.964229   -3.147709
H       0.431754    5.119999    0.120487
H      -0.817264    4.261062    1.054653
H       2.196889    3.762321    1.071819
H       1.047864    2.841291    2.058599
H       1.970311    1.934967   -0.662617
