19

C      -0.072528    1.530018   -0.051067
C       0.048090    0.037418   -0.014080
C       0.871908   -0.840899   -1.003356
C      -0.199031   -1.909098   -0.952699
C       1.119192   -2.143227   -0.255604
C       0.990238   -1.913050    1.240933
O       2.194411   -1.516899    1.876273
C      -0.089474   -0.844336    1.220786
C      -1.018296   -1.038699    0.040780
H       0.879281    2.018961    0.192039
H      -0.380916    1.883413   -1.041942
H      -0.816796    1.879558    0.671914
H       1.457011   -0.490388   -1.843074
H      -0.592047   -2.527807   -1.747408
H       1.822434   -2.866092   -0.651263
H       0.667186   -2.816137    1.769395
H       2.512306   -0.734492    1.410939
H      -0.467226   -0.415609    2.141556
H      -2.094858   -0.942042    0.084734
