19

C      -0.043967    1.599125    0.063663
C      -0.048239    0.069615    0.040470
C       0.746605   -0.505865   -1.123579
O       2.133008   -0.210218   -1.002260
C       2.837132   -1.293962   -1.560389
C       4.157741   -1.493578   -0.858159
O       1.994931   -2.448631   -1.392795
C       0.719842   -2.032279   -1.184429
O      -0.214402   -2.768863   -1.069664
H       0.976633    1.984723    0.139245
H      -0.492747    2.010208   -0.847352
H      -0.614429    1.976368    0.917089
H       0.370772   -0.327443    0.971971
H      -1.068297   -0.320485   -0.042570
H       0.351689   -0.118437   -2.079442
H       2.971368   -1.150108   -2.645229
H       3.987437   -1.674148    0.205750
H       4.689411   -2.344554   -1.290290
H       4.770739   -0.596264   -0.975715
