20

C       0.046654    1.543775   -0.116193
C      -0.074097    0.023837    0.019428
O       0.338365   -0.640557   -1.172205
C       0.657506   -0.496760    1.235541
C       2.095052   -0.941817    1.215231
C       1.029961   -1.929795    1.617122
C       0.609566   -1.681354    3.069566
C       0.231360   -0.212113    2.686389
H       1.098224    1.837836   -0.222717
H      -0.504100    1.892730   -0.994235
H      -0.350199    2.052173    0.768295
H      -1.136656   -0.235421    0.121816
H       1.189635   -0.270443   -1.429404
H       2.516385   -1.116797    0.230734
H       2.806932   -0.565393    1.947824
H       0.870116   -2.839668    1.051491
H      -0.261723   -2.264758    3.375299
H       1.393978   -1.808133    3.823412
H       0.767879    0.592868    3.199799
H      -0.842359   -0.026877    2.781392
