14

C       0.083648    1.492535    0.034434
C      -0.028752    0.009859   -0.002094
C      -1.164042   -0.707488   -0.138445
F      -2.361290   -0.120503   -0.260327
C      -1.074599   -2.131352   -0.151851
N       0.043687   -2.770030   -0.039473
C       1.219685   -2.039850    0.101600
N       2.387158   -2.510281    0.222185
O       1.144667   -0.637382    0.116189
H       0.732784    1.840117   -0.776027
H      -0.899882    1.951487   -0.065965
H       0.540450    1.811500    0.977102
H      -1.992089   -2.709767   -0.262045
H       2.324325   -3.526374    0.198729
