16

C       0.152585    1.499560   -0.420314
C      -0.041868    0.077901    0.031473
O       1.095106   -0.786147    0.020966
C       0.511064   -0.483106    1.287330
C       1.322835    0.283568    2.251103
N       2.204846    1.216172    2.063617
C       2.631721    1.555259    3.339071
C       1.973018    0.794927    4.244117
O       1.128498   -0.031567    3.560393
H       1.050476    1.931145    0.023896
H       0.242119    1.531612   -1.511149
H      -0.715993    2.104452   -0.138014
H      -0.952716   -0.406201   -0.329144
H      -0.022732   -1.307104    1.760027
H       3.379148    2.314539    3.505171
H       1.974603    0.705113    5.316401
