23

C      -0.782063    1.258411    0.170578
C       0.091142    0.019008   -0.049684
C       0.959639    0.172757   -1.324131
C       2.249650   -0.680431   -1.295026
C       2.761929   -0.864618    0.142337
O       4.058160   -1.405923    0.199175
C       1.712606   -1.645966    0.957742
C       0.997923   -0.282611    1.161947
C       2.399606    0.382914    1.010521
H      -0.164738    2.142489    0.370396
H      -1.395346    1.475665   -0.710806
H      -1.456425    1.122718    1.022698
H      -0.575771   -0.845289   -0.175711
H       0.369651   -0.048065   -2.219458
H       1.245421    1.227348   -1.410546
H       2.091263   -1.671636   -1.735776
H       3.021865   -0.187463   -1.902228
H       4.618131   -0.918006   -0.414367
H       1.166110   -2.449618    0.453763
H       2.152317   -2.022312    1.884918
H       0.467904   -0.132697    2.105322
H       2.956437    0.357193    1.950189
H       2.472668    1.381612    0.570189
