16

O      -0.176462    0.233602    0.574267
C      -0.046292    1.247512   -0.053180
C       1.302352    1.993359   -0.101391
C       1.369904    2.914432   -1.232205
N       1.414769    3.641329   -2.129288
C       1.508816    2.717282    1.252337
C       2.667944    3.726330    1.386064
C       1.547138    4.745835    1.681591
O       0.525566    3.740823    1.460101
H      -0.879667    1.721311   -0.607385
H       2.086465    1.233178   -0.197870
H       1.466195    1.944969    2.030275
H       3.366657    3.526744    2.198744
H       3.221714    3.914262    0.465250
H       1.517533    5.127691    2.707855
H       1.451165    5.577771    0.977712
