19

C       0.071328    1.066828   -0.402111
O      -0.128473   -0.006071    0.495590
C      -1.325787   -0.686956    0.275174
C      -1.522033   -1.759146   -0.775326
O      -2.594485   -1.764783   -1.647922
C      -0.228798   -2.553184   -0.982465
C      -0.208161   -2.897817    0.543741
C      -1.502716   -2.101329    0.731484
O      -2.541465   -2.495319    1.553413
H       1.031739    1.524448   -0.153344
H       0.099234    0.724643   -1.447250
H      -0.719189    1.827197   -0.307648
H      -2.228092   -0.084809    0.415158
H      -2.512612   -1.013449   -2.245186
H      -0.396653   -3.434472   -1.604695
H       0.630393   -1.995070   -1.364908
H      -0.368736   -3.961742    0.728569
H       0.658692   -2.549590    1.110040
H      -2.457919   -2.033215    2.394743
