17

C       0.364450    1.637289   -0.000384
C      -0.197717    0.229571   -0.171622
N       0.538382   -0.476064   -1.223843
C       1.701173   -1.238067   -0.822824
C       0.453264   -1.947097   -1.279016
C      -0.323726   -2.694870   -0.338291
C      -1.017394   -3.340416    0.415030
C      -1.785720   -4.066618    1.276419
N      -2.440306   -4.683948    2.012275
H       1.409488    1.607776    0.324891
H       0.318033    2.189038   -0.943133
H      -0.207890    2.185266    0.753682
H      -0.167244   -0.311603    0.787426
H      -1.247181    0.274508   -0.481961
H       2.558130   -1.208207   -1.489802
H       1.936110   -1.303711    0.238512
H       0.426268   -2.344881   -2.291068
