16

C      -0.086915    0.539452    0.711084
O       0.180897    0.811271   -0.660439
C       0.666964   -0.202922   -1.396759
C       0.948070   -1.469436   -1.031615
C       1.475981   -2.411704   -2.016587
N       1.748191   -3.619409   -1.684375
N       1.670366   -1.932104   -3.340790
C       1.378074   -0.715106   -3.604222
N       0.881850    0.193063   -2.704423
H      -0.838642   -0.250750    0.812916
H       0.827188    0.240875    1.235631
H      -0.468227    1.470021    1.131493
H       0.796919   -1.824009   -0.023296
H       2.101577   -4.107157   -2.509962
H       1.517680   -0.323288   -4.610403
H       0.668401    1.141619   -2.966575
