19

C       0.043986    1.592784    0.125630
C      -0.001912    0.065220    0.007249
C      -1.454359   -0.471544    0.048484
C      -2.141537   -0.182142    1.300303
C      -2.688322    0.058554    2.343728
C       0.674911   -0.429284   -1.293313
O       0.030589    0.065360   -2.435843
C       2.144385   -0.062943   -1.318813
O       2.629881    0.561835   -2.230831
H       1.072228    1.960956    0.204805
H      -0.411825    2.053066   -0.755512
H      -0.502257    1.923551    1.011941
H       0.543572   -0.382875    0.848617
H      -2.008765   -0.041871   -0.794081
H      -1.442826   -1.557288   -0.113663
H      -3.185119    0.266423    3.258766
H       0.641604   -1.536015   -1.287767
H       0.718894    0.512378   -2.953855
H       2.752042   -0.407273   -0.456910
