19

C      -0.179249    1.516143    0.049403
C       0.027821   -0.004377    0.026057
C       0.747559   -0.452726   -1.264021
C       1.047420   -1.940209   -1.271467
O       0.724067   -2.667906   -2.180473
C       1.797961   -2.484430   -0.055227
C       1.652169   -1.660321    1.207354
O       2.220287   -0.343706    1.192430
C       0.792554   -0.469085    1.250917
H       0.785048    2.034744    0.053263
H      -0.741829    1.848596   -0.828257
H      -0.733296    1.825495    0.941733
H      -0.958258   -0.489799    0.062176
H       0.155861   -0.213745   -2.150397
H       1.702646    0.083724   -1.326367
H       1.460483   -3.511492    0.113831
H       2.862284   -2.548576   -0.321065
H       1.834958   -2.201161    2.136096
H       0.360561   -0.176497    2.209509
