14

O       0.079466    1.384274   -0.131362
C       0.065108    0.041818   -0.019761
N       0.069941   -0.741715   -1.085916
N       0.051741   -2.001053   -0.554530
C       0.036316   -1.986972    0.801937
N       0.016409   -3.177618    1.523668
C       0.001716   -3.279665    2.894326
O       0.002399   -2.350746    3.664984
C       0.044134   -0.666076    1.203765
H       0.092463    1.589630   -1.074785
H       0.051396   -2.789816   -1.176240
H       0.015447   -4.041895    1.003694
H      -0.011493   -4.340037    3.210050
H       0.036475   -0.291412    2.209395
