16

O       0.119051    0.273250   -1.044409
C       0.065113    1.229788   -0.333820
C      -1.056062    1.898883    0.480091
C      -0.121974    3.134826    0.670581
C       0.313892    3.449893    2.112641
N       1.426007    2.541269    2.323674
C       1.984139    1.989331    1.198450
O       2.996066    1.332140    1.151154
C       1.061847    2.353472    0.020877
H      -1.983879    2.062643   -0.073792
H      -1.293733    1.363102    1.405429
H      -0.461825    4.020179    0.135395
H       0.623361    4.498465    2.219316
H      -0.494198    3.266290    2.830504
H       1.928455    2.484299    3.195915
H       1.643562    2.765500   -0.804476
