16

C      -0.079567    1.478792   -0.069440
C       0.055863   -0.011056    0.018740
O       0.697599   -0.602019   -1.086160
C       0.495993   -1.960889   -0.648327
C       1.038409   -1.914777    0.783220
C       0.761069   -0.682440    1.204950
C      -1.027963   -1.917316   -0.477573
N      -1.843853   -2.854428   -0.684877
O      -1.290409   -0.649278   -0.045556
H       0.910630    1.940440   -0.050446
H      -0.586318    1.750937   -0.997372
H      -0.661126    1.852155    0.776750
H       0.882783   -2.691928   -1.350783
H       1.437900   -2.758653    1.326016
H       0.886813   -0.239888    2.182539
H      -2.799502   -2.555352   -0.480810
