20

C       1.371961    1.099535   -0.494842
C       0.314822    0.113160   -0.046304
C       0.643869   -1.268401    0.441985
C       0.086533   -0.253052    1.420345
C       0.878547    0.330016    2.534227
C       2.386124    0.181863    2.672746
O       3.066646    1.421369    2.570289
N       0.187112    0.971352    3.404238
O       1.012945    1.500885    4.428083
H       2.238104    1.129588    0.169624
H       1.721888    0.858888   -1.504968
H       0.958965    2.113752   -0.520696
H      -0.611898    0.187120   -0.610056
H       0.001276   -2.095602    0.160470
H       1.690839   -1.538795    0.522288
H      -0.956182   -0.371981    1.694156
H       2.584882   -0.304949    3.639079
H       2.794589   -0.459038    1.891468
H       2.700097    1.976554    3.269810
H       0.373235    1.942113    4.995702
