21

C       0.107768    1.566480    0.105048
C      -0.011254    0.043066   -0.041468
C      -1.427478   -0.468196   -0.009267
C      -1.911387   -1.664241   -0.796674
C      -2.582183   -0.337811   -1.019721
C      -3.587727   -0.069101    0.110956
C      -2.432645   -0.247493    1.113625
C      -2.411994   -0.706179    2.504413
O      -2.220259    0.679407    2.164621
H       1.156164    1.879331    0.072390
H      -0.421220    2.077955   -0.706164
H      -0.323281    1.899416    1.051627
H       0.454439   -0.275816   -0.982365
H       0.563179   -0.448138    0.756378
H      -1.239619   -1.991625   -1.584597
H      -2.447861   -2.475035   -0.307530
H      -2.582579    0.152380   -1.985462
H      -3.945035    0.963721    0.132877
H      -4.442278   -0.749954    0.186783
H      -3.345094   -0.928864    3.020495
H      -1.532180   -1.214198    2.897857
