24

C       1.148663    0.919948    0.919844
C       0.951199   -0.511774    0.416004
C       1.442098   -0.774750   -1.030877
C       0.757909    0.178478   -2.013440
O       2.844791   -0.468154   -1.123427
C       1.224785   -2.272971   -1.309970
C       0.327898   -2.835687   -2.365711
N       1.764787   -3.037087   -2.436037
C       2.518111   -2.418255   -3.518455
H       2.178415    1.245419    0.748611
H       0.482012    1.628539    0.419932
H       0.943356    0.980080    1.992913
H       1.495615   -1.200189    1.077035
H      -0.105141   -0.801555    0.486297
H       1.031926    1.208539   -1.774525
H       1.064468   -0.008554   -3.042940
H      -0.329435    0.083195   -1.952159
H       3.319140   -1.100396   -0.571870
H       1.294753   -2.854086   -0.388460
H      -0.279833   -3.715940   -2.166050
H      -0.119385   -2.131870   -3.066157
H       2.067440   -1.509464   -3.939231
H       3.519344   -2.161556   -3.166268
H       2.609228   -3.151679   -4.326782
