18

C      -0.046837    1.611674   -0.079055
C       0.065285    0.085807   -0.024723
C       0.802520   -0.542875   -1.189700
C       1.569797   -1.565903   -0.825002
C       1.492432   -1.835979    0.661228
O       2.695878   -2.208523    1.286095
C       0.832316   -0.509659    1.205133
C       1.889216    0.383167    1.678689
N       2.753789    1.062343    2.037653
H       0.938516    2.083462   -0.121975
H      -0.609944    1.914528   -0.967496
H      -0.571434    2.003034    0.798122
H      -0.954229   -0.325151    0.009784
H       0.657301   -0.192377   -2.206008
H       2.156837   -2.199531   -1.479420
H       0.810048   -2.671290    0.863299
H       3.332005   -1.490075    1.178121
H       0.164146   -0.712016    2.046528
