19

C       0.326035    1.674305    0.054484
C       0.058865    0.178088    0.025977
C       0.864191   -0.715038   -0.970766
C       1.247486   -1.693372    0.192972
C       2.560940   -1.287629    0.898786
O       1.891634   -0.263699    1.664663
C       0.592351   -0.675483    1.198567
C       0.914089   -3.083436    0.066124
C       0.633355   -4.248614   -0.043148
H       1.380148    1.870032    0.269368
H       0.076184    2.134272   -0.907460
H      -0.270919    2.170103    0.827634
H      -1.013190   -0.017941   -0.090377
H       0.267241   -1.175922   -1.758488
H       1.732892   -0.230205   -1.425468
H       2.971610   -2.070090    1.547891
H       3.354056   -0.885045    0.257384
H      -0.077333   -0.947754    2.018814
H       0.386030   -5.276959   -0.136723
