16

C      -0.004044   -1.174714   -0.041876
C       0.022331    0.021779    0.036772
C       0.027782    1.481567    0.087371
O      -0.653810    1.898730    1.247914
C      -0.716521    3.319925    1.322211
C       0.690426    3.919627    1.281020
C       1.422640    3.355626    0.061757
O       1.362498    1.932380    0.059852
H      -0.020685   -2.235190   -0.100153
H      -0.501028    1.889857   -0.798531
H      -1.319957    3.709930    0.484502
H      -1.237785    3.554029    2.253332
H       0.642275    5.013047    1.230274
H       1.231231    3.640498    2.190932
H       0.972564    3.748187   -0.866318
H       2.483601    3.616137    0.060583
