23

C      -0.423561    0.850304   -0.130632
O      -0.408132   -0.543092    0.089236
C       0.498871   -0.953359    1.087240
C       0.319094   -2.384437    1.579079
C       0.632990   -3.426600    0.539797
C       0.198117   -3.421726   -0.914571
C       1.781180   -2.704465    1.191641
C       2.004549   -1.263929    0.709742
C       2.554660   -0.991455   -0.687054
H       0.538694    1.226817   -0.505870
H      -1.193897    1.052449   -0.879030
H      -0.671846    1.399645    0.791216
H       0.459382   -0.241160    1.924024
H      -0.211751   -2.635849    2.490030
H       0.540736   -4.419330    0.981628
H       0.921230   -3.953224   -1.543802
H      -0.763697   -3.938346   -1.010030
H       0.058947   -2.414349   -1.302847
H       2.508705   -3.250952    1.781667
H       2.640773   -0.747438    1.437098
H       1.902671   -1.365668   -1.477305
H       2.699154    0.082078   -0.851604
H       3.531606   -1.473652   -0.806304
