14

C       0.078885    1.466937    0.241833
O       1.010285    2.189262   -0.622662
C       2.003908    1.439974   -1.068152
C       2.065191    0.072420   -1.138490
C       3.319474   -0.131461   -1.765130
N       3.945031    0.990017   -2.040508
O       3.071136    2.023332   -1.583679
C       0.902229   -0.677877   -0.711364
C      -0.074353    0.001973   -0.095749
H       0.431507    1.601552    1.276565
H      -0.865252    2.006381    0.139527
H       3.802812   -1.061847   -2.031801
H       0.810648   -1.735313   -0.932195
H      -0.996980   -0.471805    0.219372
