21

C      -0.488870    1.427978    0.002348
C      -0.023893   -0.043573   -0.010584
C       0.717818   -0.383820   -1.307555
O       1.964255    0.272988   -1.459542
C       3.050002   -0.395339   -0.842732
C       3.209372   -0.046032    0.634100
O       3.576676    1.327237    0.785279
C       2.031326   -0.370171    1.531020
C       0.722426   -0.360257    1.266359
H       0.367804    2.101124   -0.095519
H      -1.173023    1.626549   -0.829493
H      -1.005673    1.673370    0.934707
H      -0.928122   -0.669830   -0.019419
H       0.861350   -1.472745   -1.378316
H       0.103365   -0.071548   -2.160251
H       2.954425   -1.484917   -0.967063
H       3.952570   -0.062258   -1.365759
H       4.080314   -0.605688    0.998121
H       2.872572    1.838053    0.368198
H       2.318427   -0.552216    2.564780
H       0.060778   -0.538313    2.113962
