19

C       0.213153    1.153721    0.081396
N      -0.199412   -0.130964    0.613316
C      -1.419807   -0.644218    0.154634
C      -2.400902    0.021694   -0.542633
N      -3.460925   -0.868948   -0.714356
C      -3.138459   -2.064565   -0.154046
O      -4.051505   -3.057655   -0.238445
C      -3.667706   -4.274966    0.375242
C      -1.882710   -1.980796    0.403777
H       1.206592    1.402924    0.462849
H       0.237933    1.190909   -1.021402
H      -0.480023    1.931149    0.423000
H       0.539149   -0.819618    0.567605
H      -2.457090    1.027978   -0.917628
H      -4.322975   -0.686011   -1.194734
H      -4.494794   -4.971249    0.229103
H      -2.759039   -4.681429   -0.087169
H      -3.488233   -4.136855    1.449130
H      -1.356052   -2.753489    0.939203
