17

C      -0.140156    1.520180    0.215161
C       0.124076    0.051752    0.075624
C      -0.669431   -1.006540    0.787021
C       0.810410   -0.846368    1.114514
O       1.731734   -1.637701    0.414297
C       1.398647   -1.528207   -0.960689
O       0.728985   -0.297079   -1.144734
C       1.278812   -0.345188    2.417415
O       0.574264    0.252250    3.199349
H       0.747748    2.094272   -0.063735
H      -0.966739    1.823840   -0.435024
H      -0.404924    1.753883    1.248686
H      -1.334267   -0.658280    1.570341
H      -0.983563   -1.904695    0.267593
H       2.313872   -1.534288   -1.559680
H       0.750240   -2.367738   -1.257162
H       2.353276   -0.542300    2.615154
