17

N       0.153420    1.222059   -1.322123
C      -0.070657    0.231869   -0.564294
C      -1.433689   -0.424776   -0.531909
C      -2.257618    0.004103    0.703823
C      -3.659070   -0.564277    0.649936
O      -4.137662   -1.287094    1.484240
N       0.852377   -0.356888    0.335388
C       2.147240    0.041950    0.564686
O       2.704647    0.972862    0.029969
H       1.108076    1.563574   -1.204836
H      -1.949169   -0.122398   -1.445835
H      -1.332651   -1.517580   -0.548203
H      -1.793047   -0.312602    1.642026
H      -2.330585    1.099736    0.704171
H      -4.238862   -0.265527   -0.254259
H       0.537209   -1.159815    0.859413
H       2.641394   -0.602603    1.316691
