19

C      -0.106535    1.452295   -0.111171
C       0.119040   -0.036757   -0.000110
O      -0.927390   -0.709547   -0.600957
C       1.486151   -0.614770   -0.026077
C       0.733851   -0.641107    1.321062
C       1.234766    0.207853    2.471520
O       2.268396   -0.445564    3.198058
C       0.169851   -1.942416    1.723436
O      -0.229733   -2.795729    0.948994
H       0.728440    2.030583    0.286584
H      -0.226963    1.706080   -1.168924
H      -1.022876    1.742806    0.410085
H      -0.826186   -1.657979   -0.404869
H       1.617073   -1.575970   -0.513219
H       2.338568    0.056153   -0.082520
H       1.560578    1.193873    2.115327
H       0.434997    0.376859    3.201017
H       2.980999   -0.641275    2.579835
H       0.101145   -2.107349    2.816596
