13

N       0.010361    1.361443    0.091676
C      -0.011390    0.006187    0.033817
C      -1.216938   -0.724240    0.028071
C      -1.097206   -2.102256   -0.003014
N       0.083484   -2.748295   -0.024903
C       1.147719   -1.950740   -0.016305
N       1.175144   -0.620088    0.008602
C      -2.287677   -2.916403   -0.013837
N      -3.261556   -3.539374   -0.022348
H       0.899520    1.813669   -0.043706
H      -0.824373    1.895402   -0.074026
H      -2.185725   -0.240831    0.048570
H       2.115942   -2.445483   -0.034743
