21

C      -0.375641    1.476690   -0.016040
C       0.081133    0.019188   -0.051858
C       1.079960   -0.304617   -1.175040
O       1.691477   -1.518959   -0.792313
C       1.968515   -1.398013    0.594247
C       0.830755   -0.545808    1.214829
C       1.373660    0.525742    2.176953
C      -0.152988   -1.400846    2.001931
O      -0.013056   -2.560827    2.288780
H       0.463098    2.167889    0.109980
H      -0.876953    1.735723   -0.954555
H      -1.088029    1.661231    0.794011
H      -0.803499   -0.609204   -0.219363
H       0.607513   -0.449809   -2.150322
H       1.825316    0.506251   -1.268310
H       2.008350   -2.399660    1.026358
H       2.938522   -0.899973    0.749988
H       2.016939    1.236396    1.650944
H       0.569361    1.090572    2.659249
H       1.971168    0.056978    2.965732
H      -1.066511   -0.844220    2.321203
