17

C      -0.150245    1.388309    0.084474
C       1.418306    1.290867    0.042012
O       1.954977    0.548288    1.146227
C       2.368777   -0.743559    0.744248
C       1.316624   -1.769549    0.253035
C      -0.037455   -1.161950    0.270437
C      -0.040739   -0.032254   -0.453721
C       1.322546    0.222881   -1.100865
C       2.190643   -0.949312   -0.717822
H      -0.618514    1.535793    1.058063
H      -0.499958    2.139198   -0.632161
H       1.981015    2.222358   -0.095776
H       3.232466   -1.095781    1.295986
H       1.516197   -2.818817    0.444728
H      -0.748228   -1.383863    1.059479
H       1.347583    0.598628   -2.123073
H       2.933297   -1.388045   -1.369630
