19

N       0.872045   -0.015794   -0.308985
C      -0.234208    0.437235    0.334494
O      -0.256868    1.419294    1.050857
C      -1.503170   -0.380074    0.064242
N      -1.209809   -1.690060   -0.514838
C      -1.192978   -2.847861    0.377844
C      -2.275841   -2.684745   -0.633867
C      -3.720065   -2.416585   -0.230908
O      -3.916282   -2.041746    1.121399
H       1.730969    0.501033   -0.228728
H       0.795917   -0.815447   -0.916053
H      -2.083532   -0.416810    0.992234
H      -2.094750    0.193772   -0.660156
H      -0.390830   -3.564467    0.223254
H      -1.455018   -2.669809    1.418755
H      -2.207335   -3.267893   -1.552568
H      -4.123161   -1.590329   -0.828040
H      -4.310689   -3.309194   -0.487475
H      -3.750393   -2.814441    1.670703
