13

O      -0.849817    0.896632    0.583869
C       0.166118    0.857518   -0.055318
C       1.284932    1.891052    0.077345
C       1.313466    2.617976    1.426182
C       2.648957    2.221703    2.022939
O       3.126157    2.533306    3.074905
C       3.352169    1.305827    0.993903
O       4.418262    0.782206    1.083250
O       2.538400    1.184943   -0.089111
H       0.374854    0.066012   -0.804140
H       1.196499    2.580391   -0.771344
H       1.255044    3.704727    1.328422
H       0.482519    2.298274    2.062124
