15

N      -0.081905    1.611670   -0.094901
C      -0.018311    0.151340   -0.023215
C      -1.339431   -0.442962    0.124613
C      -2.431036   -0.956278    0.233839
C      -3.660834   -1.526094    0.354625
C      -4.750388   -2.035427    0.460455
C       0.799916   -0.462530   -1.209711
N       0.572407   -1.770526   -1.475337
O       1.632776    0.215418   -1.776896
H       0.812417    1.911046   -0.483377
H      -0.777870    1.871647   -0.789580
H       0.570216   -0.111829    0.870893
H      -5.711129   -2.477464    0.556826
H      -0.222207   -2.246801   -1.082643
H       1.075060   -2.199317   -2.235754
