21

C      -0.026744    1.509203    0.022623
C       0.005691   -0.002573   -0.002591
C      -1.356901   -0.765836   -0.052940
C      -0.965824   -1.523958    1.264908
O      -0.930641   -2.934873    1.258476
C       0.425245   -0.834037    1.252780
C       1.600100   -1.436656    0.455535
C       1.182907   -2.117897   -0.815427
C       1.198544   -0.617273   -0.783142
H       0.956595    1.919839    0.279228
H      -0.308496    1.914480   -0.957502
H      -0.749343    1.882632    0.756837
H      -2.232998   -0.119264    0.053523
H      -1.504005   -1.410827   -0.922502
H      -1.563629   -1.159879    2.112760
H      -1.838255   -3.255325    1.265258
H       0.728305   -0.334625    2.174502
H       2.585291   -1.595094    0.877474
H       2.006626   -2.556131   -1.371928
H       0.267495   -2.694251   -0.863272
H       1.827442   -0.043290   -1.455733
