17

N       0.115566    1.163708    0.445974
C       0.063990    0.004002   -0.267306
O       0.913415   -0.340394   -1.066595
C      -1.197394   -0.828927   -0.060266
C      -0.991249   -2.326045    0.147718
N      -0.392280   -2.476314    1.498014
C      -1.863322   -2.335326    1.352692
C      -2.056861   -0.815371    1.281792
O      -1.567645   -0.095554    2.389403
H       0.971002    1.694612    0.390918
H      -0.470148    1.258525    1.264812
H      -1.859507   -0.640681   -0.911283
H      -0.847586   -3.086540   -0.607319
H      -0.181932   -3.461795    1.642536
H      -2.541204   -3.086951    1.736458
H      -3.084987   -0.492491    1.112525
H      -0.768529   -0.575969    2.658079
