16

O       0.062695    0.014633    0.408257
C       0.007517    1.182101    0.072500
C      -1.234456    2.033752   -0.001012
C      -0.958585    3.288437   -0.388346
C       0.503403    3.439448   -0.737209
C       1.470680    4.463363   -0.096384
N       2.717964    3.660188   -0.008597
C       2.348176    2.332530    0.140521
C       1.081613    2.121318   -0.265324
H      -2.210317    1.632761    0.245283
H      -1.689803    4.077269   -0.531320
H       0.589998    3.536582   -1.831992
H       1.625815    5.358939   -0.701785
H       1.136093    4.763111    0.907099
H       3.460177    4.010060    0.578872
H       3.046631    1.621949    0.564597
