19

C       0.065279    1.472784    0.040101
C      -0.032340   -0.017532   -0.046915
C      -0.086968   -0.784945   -1.148594
C      -0.023545   -2.237232   -0.760882
C       1.417233   -2.518397   -0.165215
C       0.880792   -2.163879    1.210980
C      -0.066079   -0.903986    1.151876
C      -0.531457   -2.274265    0.739255
O      -1.559358   -3.013176    1.275218
H       1.004422    1.784792    0.514430
H       0.017932    1.934681   -0.949966
H      -0.744822    1.892983    0.650066
H      -0.030652   -0.429230   -2.170992
H      -0.403877   -2.971302   -1.470047
H       1.658093   -3.583377   -0.215304
H       2.238327   -1.928461   -0.584370
H       1.308333   -2.434974    2.168571
H      -0.344463   -0.529621    2.131477
H      -2.391766   -2.582727    1.046928
