24

C      -0.010264    1.082149   -1.961814
C      -0.017942   -0.123099   -1.043960
C       1.219076   -0.646042   -0.346647
C       2.580576    0.003625   -0.479601
C       0.094462   -0.025016    0.469788
C       0.249287    1.292076    1.166708
C      -0.703228    1.696683    2.243550
N       0.689305    1.407750    2.564900
C       0.967726    0.203520    3.333017
H       0.725099    1.836449   -1.673673
H       0.223593    0.778795   -2.988343
H      -0.991403    1.569609   -1.976741
H      -0.705595   -0.894963   -1.381998
H       1.275709   -1.729953   -0.276301
H       2.528601    1.093771   -0.521289
H       3.217691   -0.255295    0.373317
H       3.089689   -0.337589   -1.387993
H      -0.523458   -0.734726    1.011307
H       0.657716    2.090224    0.552123
H      -1.021034    2.730380    2.358428
H      -1.454242    0.960004    2.531068
H       0.275332   -0.632766    3.150577
H       1.983329   -0.141270    3.112663
H       0.919395    0.451646    4.398436
