20

C      -0.198508    1.553658   -0.168376
C      -0.527838    0.136457   -0.651952
C       0.680230   -0.536108   -1.263164
N       1.650027   -1.143851   -0.355156
C       0.923358   -2.019134   -1.289715
C      -0.022184   -3.055882   -0.769056
O      -0.365336   -4.008852   -1.427270
O      -0.451155   -2.820007    0.482953
C      -1.364592   -3.793750    1.003926
H       0.588920    1.526397    0.591151
H       0.149241    2.187986   -0.991751
H      -1.077804    2.033442    0.271528
H      -0.888634   -0.469334    0.181587
H      -1.328458    0.172117   -1.401913
H       1.080891   -0.018262   -2.136364
H       2.603056   -1.011718   -0.682389
H       1.443275   -2.397388   -2.165449
H      -2.268555   -3.843704    0.391527
H      -0.900746   -4.782957    1.023528
H      -1.603439   -3.462992    2.014565
