17

C       0.084682    1.620345   -0.084869
C       0.081140    0.100496   -0.009032
C       1.096033   -0.732798   -0.867780
C       1.230767   -1.734858    0.346172
C       2.239624   -0.717571    0.949872
C       2.478659   -0.199253   -0.430028
O       3.419316    0.261536   -1.013996
C       0.701974   -0.636714    1.184999
O       0.183938   -0.762213    2.452191
H       1.086512    2.032760    0.073131
H      -0.265257    1.964652   -1.063412
H      -0.582702    2.047469    0.671747
H      -0.927929   -0.297200   -0.167544
H       0.884831   -0.989129   -1.902209
H       1.249046   -2.810588    0.418482
H       2.916662   -0.872986    1.778846
H       0.378875    0.041935    2.946829
