21

C      -0.221505    1.493852    0.172187
C      -0.059157   -0.008830    0.154995
C       1.183294   -0.673895   -0.326615
C       0.841086   -0.750191    1.163085
C       1.688893    0.021589    2.157496
C       0.282125   -2.064300    1.592132
O      -0.355998   -2.782507    0.839745
C       0.492158   -2.546132    3.025065
O      -0.123068   -3.780318    3.232044
H       0.728493    2.015671    0.313665
H      -0.637715    1.832046   -0.782950
H      -0.906180    1.816035    0.963911
H      -0.970935   -0.559375   -0.057773
H       1.088256   -1.594866   -0.889801
H       2.033355   -0.050187   -0.585558
H       2.064694    0.947198    1.717673
H       1.125792    0.294153    3.056645
H       2.562111   -0.559242    2.472827
H       1.575699   -2.601122    3.222106
H       0.096375   -1.780444    3.713069
H      -0.523956   -3.999489    2.373882
