14

O      -0.093576    1.337190    0.044124
N       0.042595   -0.061134    0.011398
C      -1.102554   -0.632062   -0.034304
C      -2.462272   -0.090551   -0.030459
C      -3.320561   -1.123322    0.017281
N      -2.700887   -2.405436    0.111743
C      -2.006216   -2.771581   -1.145337
C      -1.255139   -2.118899   -0.028363
H       0.822748    1.628305    0.094323
H      -2.704262    0.959777   -0.073331
H      -4.402687   -1.091857   -0.009810
H      -1.877282   -3.837287   -1.307572
H      -2.233916   -2.179796   -2.026913
H      -0.574521   -2.718252    0.565324
