18

O      -0.296530    1.472603   -0.106071
C      -0.070671    0.082815   -0.039463
C       0.446958   -0.519392    1.321228
C      -0.865075   -1.297869    1.412425
C      -2.051287   -0.381982    1.394096
C      -1.356248   -0.727640    0.092900
O      -0.935712   -2.628052    1.816834
C      -1.249970   -2.852195    3.115677
N      -1.237146   -4.029483    3.566354
H       0.557246    1.915838   -0.138628
H       0.543534   -0.261549   -0.880881
H       1.311211   -1.172576    1.183227
H       0.647774    0.198900    2.122546
H      -3.007983   -0.877939    1.521531
H      -1.994521    0.624715    1.796597
H      -1.883702   -1.216442   -0.715650
H      -1.505982   -1.935775    3.661476
H      -1.509954   -4.026571    4.547137
