15

C      -0.016705    1.517187    0.041833
C       0.000069    0.021284   -0.062212
C      -0.050382   -0.664372   -1.240496
C      -0.026289   -2.082130   -1.180954
F      -0.076629   -2.729192   -2.344877
C       0.043732   -2.783549   -0.019762
C       0.098394   -2.087509    1.246090
O       0.162766   -2.579334    2.359521
N       0.070488   -0.677769    1.105909
H       0.888322    1.885713    0.538133
H      -0.074473    1.972214   -0.947837
H      -0.876361    1.859619    0.629121
H      -0.106774   -0.156212   -2.192055
H       0.060237   -3.864410   -0.009065
H       0.108394   -0.184630    1.987922
