19

C       0.092937    1.453012   -0.160318
O       1.215082    0.562113   -0.222551
C      -0.063845    0.001507   -0.034181
C      -0.544407   -0.804638    1.174445
C      -1.564524   -1.492386    0.215227
C      -0.754543   -0.972990   -1.001206
C      -1.310140   -0.613470   -2.388985
C      -0.263784   -1.613711   -2.914078
O       0.138638   -1.956569   -1.571553
H       0.036695    2.075499    0.732313
H      -0.154285    1.957310   -1.093692
H       0.224259   -1.499138    1.522725
H      -0.940159   -0.247976    2.026425
H      -1.643649   -2.579021    0.271277
H      -2.561871   -1.046979    0.266407
H      -2.350725   -0.905849   -2.544026
H      -1.180619    0.425633   -2.697504
H      -0.651386   -2.482914   -3.457653
H       0.561413   -1.172359   -3.485324
