16

C       0.080031    1.425387    0.073566
N      -0.060340   -0.002377   -0.077438
C      -1.250240   -0.670340   -0.029139
C      -2.493974   -0.012177   -0.001751
C      -3.642257   -0.791115    0.023415
C      -3.554195   -2.180026    0.024900
C      -2.266422   -2.703136    0.002298
F      -2.121111   -4.028367    0.008305
N      -1.152284   -2.013999   -0.022191
H       1.140464    1.680426    0.030993
H      -0.424818    1.966033   -0.736726
H      -0.322748    1.792760    1.028647
H       0.751171   -0.589213    0.021750
H      -2.553727    1.067790   -0.002560
H      -4.615792   -0.311870    0.043609
H      -4.418256   -2.829490    0.045878
