19

N       1.178133   -0.092732   -0.193454
C      -0.031531    0.160745    0.378203
O      -0.226395    1.116868    1.111934
C      -1.134629   -0.830584    0.064754
C      -2.061271   -1.087151    1.211097
N      -2.484318   -0.236106    0.101194
C      -0.883664   -1.894748   -0.965281
C      -2.020006   -2.454979   -1.777395
C      -0.998817   -1.570528   -2.442228
H       1.891638    0.610309   -0.086146
H       1.256260   -0.740585   -0.958397
H      -2.553719   -2.053912    1.265171
H      -1.823197   -0.611510    2.156984
H      -2.368760    0.735288    0.390655
H      -0.108355   -2.603696   -0.683578
H      -2.006902   -3.515590   -2.001264
H      -2.998634   -2.026656   -1.597550
H      -1.312200   -0.565598   -2.703861
H      -0.290862   -2.018625   -3.131330
