19

C      -0.045218    1.555044    0.118010
C       0.152482    0.069537   -0.012839
O      -0.551110   -0.753078    0.926381
C       0.877879   -0.779623    0.953471
C       1.516155   -1.967026    0.240504
C       1.091390   -1.820371   -1.216792
O      -0.317564   -1.891485   -1.447527
C       0.288579   -0.593860   -1.396215
C       0.227801    0.224205   -2.657172
H       0.754737    2.110491   -0.382041
H      -0.997700    1.865445   -0.324923
H      -0.055302    1.837510    1.173421
H       1.329516   -0.387150    1.863443
H       2.608083   -1.905228    0.318293
H       1.202042   -2.924319    0.668671
H       1.710283   -2.243171   -2.006902
H      -0.756498    0.689603   -2.776843
H       0.978147    1.021365   -2.653218
H       0.406927   -0.415449   -3.524661
