21

C      -0.065942    1.593192   -0.331331
C      -0.060104    0.147188    0.198005
C      -1.413398   -0.493584    0.195223
C      -2.349400   -0.683551    1.192674
C      -3.451349   -1.320072    0.568148
C      -4.754007   -1.742293    1.179612
C      -5.666636   -0.556918    1.536073
N      -3.217079   -1.513179   -0.728675
N      -1.982918   -1.001941   -0.929212
H       0.940986    2.020903   -0.304186
H      -0.423574    1.635776   -1.364974
H      -0.724222    2.224119    0.272740
H       0.637199   -0.456425   -0.397279
H       0.323727    0.134635    1.222788
H      -2.245145   -0.406850    2.230359
H      -5.263368   -2.402253    0.470829
H      -4.559768   -2.332747    2.083639
H      -6.602696   -0.905002    1.984440
H      -5.181190    0.116602    2.249800
H      -5.911762    0.025650    0.642785
H      -1.579042   -1.055804   -1.848989
