17

C       0.206079    1.509633   -0.001066
C      -0.020526   -0.021370   -0.017429
O      -1.403856   -0.299609    0.002012
C       0.599847   -0.646695   -1.239119
C       1.865232   -1.044458   -1.217885
C       2.684903   -0.929321    0.030582
O       1.911358   -0.928529    1.246005
C       0.608111   -0.616934    1.251222
O      -0.052209   -0.782282    2.246816
H       1.268967    1.769694   -0.016140
H      -0.273482    1.946258   -0.880944
H      -0.251591    1.937736    0.895435
H      -1.621280   -0.449961    0.934696
H      -0.032863   -0.727062   -2.116679
H       2.359174   -1.459862   -2.090387
H       3.367828   -1.778178    0.133967
H       3.301075   -0.019173    0.024177
