20

C      -0.033559    1.480618    0.070313
C       0.073523   -0.027734    0.049083
C       0.660030   -0.713393   -1.151514
C       1.446273   -0.671767    0.143283
C       1.454449   -2.078643    0.678681
O       2.052066   -2.503509    1.643167
N       0.628234   -2.812677   -0.145472
C       0.274479   -2.173204   -1.408945
C      -1.185763   -2.395799   -1.804611
H       0.799813    1.944859   -0.467276
H      -0.962991    1.815414   -0.403192
H      -0.022403    1.863082    1.096199
H      -0.725055   -0.548517    0.571630
H       0.946088   -0.110763   -2.005760
H       2.321981   -0.057989    0.309284
H       0.547306   -3.807254   -0.003305
H       0.913657   -2.560962   -2.217861
H      -1.864174   -2.001155   -1.043347
H      -1.399955   -1.896572   -2.754918
H      -1.399244   -3.462181   -1.933869
