18

C      -0.051839    1.431362   -0.006894
C       0.077118   -0.072306    0.002904
C       1.436832   -0.686098   -0.139693
N       0.686070   -0.660638    1.197939
C       0.470519   -2.130032    1.062394
C       0.560788   -3.087447    2.213824
C      -0.749808   -2.886753    1.498286
C       1.305625   -2.186453   -0.193925
O       1.801407   -3.063074   -0.843995
H       0.811182    1.897823    0.475134
H      -0.125933    1.805761   -1.032659
H      -0.951514    1.738734    0.535466
H      -0.762651   -0.611747   -0.433842
H       2.325147   -0.093991   -0.328056
H       1.113636   -4.004895    2.042816
H       0.675102   -2.646809    3.197626
H      -1.518749   -2.314936    2.007317
H      -1.114568   -3.672251    0.845188
