19

C      -0.033091    1.457531    0.057920
C      -0.002325   -0.044701    0.020447
C       0.620811   -0.966583   -1.070620
C       0.030596   -1.959358   -0.019208
C       0.639860   -1.011485    1.067575
C       0.058895   -3.391056   -0.045438
C       0.068279   -4.594365   -0.060005
C      -1.230243   -1.015095   -0.022597
O      -2.177827   -1.047039    0.998925
H       0.975767    1.877935    0.129636
H      -0.503198    1.862097   -0.844982
H      -0.608670    1.812138    0.919971
H       0.147479   -0.963571   -2.056558
H       1.710184   -0.958486   -1.145114
H       1.730932   -1.004298    1.132852
H       0.209678   -1.049433    2.073833
H       0.075091   -5.655935   -0.076005
H      -1.796783   -1.014697   -0.957938
H      -1.734742   -1.111495    1.851188
