10

N       0.051177    1.339542    0.160246
C      -0.047135   -0.024649    0.047198
N      -1.124044   -0.747916    0.010290
C      -0.636291   -2.054430   -0.020843
C       0.711337   -2.041199   -0.009142
O       1.113234   -0.716610    0.037133
H       0.879490    1.739889   -0.255241
H      -0.800291    1.814611   -0.100021
H      -1.301676   -2.902586   -0.053852
H       1.495770   -2.776095   -0.029709
