11

F       0.075400    0.029758    0.003080
C      -0.055890    1.344171    0.011083
C      -1.249942    1.988779    0.030111
N      -1.277944    3.356028    0.037055
C      -0.170969    4.033333    0.025485
C       1.171549    3.446157    0.004521
O       2.235776    4.028150   -0.006654
N       1.108549    2.033015   -0.001244
H      -2.184282    1.445096    0.040023
H      -0.217064    5.118836    0.031397
H       1.988909    1.533281   -0.015377
