15

C      -0.036028   -1.225160   -0.126315
C      -0.006862   -0.029096   -0.015985
C       0.038572    1.417530    0.100528
N      -0.134636    1.975556    1.496202
C       1.093162    2.767717    1.340029
C       2.253552    1.847428    1.213101
C       1.413388    2.125291   -0.023556
C       1.935103    2.670890   -1.226880
N       2.342607    3.126049   -2.211030
H      -0.062845   -2.282783   -0.222423
H      -0.666079    1.877046   -0.599485
H      -0.959538    2.565442    1.527512
H       1.165112    3.805344    1.640133
H       3.231994    2.313947    1.189191
H       2.206417    0.861942    1.666016
