17

C      -0.034560    1.476577   -0.050947
C       1.517196    1.536314    0.090103
O       2.002066    1.380921    1.462171
C       1.661979    0.007741    1.384907
C       2.023545   -1.242391    2.154578
O       0.727676   -1.789279    1.755652
C       0.190330   -0.467857    1.458322
C      -0.005716   -0.088614   -0.012018
C       1.561467    0.007224   -0.160402
H      -0.629155    2.001400    0.702569
H      -0.321622    1.829963   -1.045395
H       2.067476    2.314376   -0.437907
H       2.860742   -1.851740    1.799613
H       2.085541   -1.113436    3.244073
H      -0.538914   -0.145242    2.208199
H      -0.678281   -0.645395   -0.663500
H       2.224261   -0.527726   -0.835017
