16

C      -0.235552    1.612437    0.050126
C      -0.021800    0.097912    0.029347
C       0.676646   -0.433017   -1.254499
C       2.175928    0.021292   -1.328462
O       2.754040    0.517289   -0.407318
C       0.737822   -1.897222   -1.267972
C       0.852712   -3.092550   -1.249063
C       0.011607    0.048460   -2.476777
N      -0.480499    0.459073   -3.438228
H       0.714653    2.149724    0.011063
H      -0.857010    1.941671   -0.787826
H      -0.743719    1.897343    0.975476
H       0.606096   -0.212484    0.868403
H      -0.976944   -0.426311    0.121874
H       2.657510   -0.197863   -2.301346
H       0.930849   -4.152415   -1.238551
