21

C       0.724962    0.137937    1.299830
O       0.002505    0.252442    0.088514
C      -1.057990   -0.668594   -0.045835
C      -1.530617   -0.811006   -1.524418
C      -1.600132   -2.346515   -1.317968
C      -0.733762   -2.190137   -0.039568
C      -2.255723   -0.292654    0.838754
C      -2.527533    1.191627    1.006425
O      -2.972007   -1.137939    1.326656
H       1.513495    0.893212    1.271500
H       0.095590    0.319475    2.183829
H       1.185910   -0.853258    1.407037
H      -2.441488   -0.284356   -1.820339
H      -0.711734   -0.508798   -2.181728
H      -2.610058   -2.683855   -1.078689
H      -1.197769   -2.967318   -2.120139
H       0.328044   -2.352680   -0.240744
H      -1.042404   -2.748615    0.844182
H      -2.400703    1.727527    0.061751
H      -3.536034    1.330911    1.398011
H      -1.809238    1.626198    1.709553
