19

C      -0.006955    1.616104    0.105229
C       0.037433    0.085542    0.064748
N       0.741840   -0.509490    1.197215
C       0.011356   -0.686819    2.440282
C       2.087775   -0.698278    1.073692
O       2.729135   -0.472702    0.066850
O       2.642438   -1.184565    2.215708
C       4.047146   -1.428894    2.130820
H       1.007068    2.023407    0.068218
H      -0.562267    2.001780   -0.755771
H      -0.497476    1.984628    1.011971
H      -0.978710   -0.325645    0.056430
H       0.542967   -0.244306   -0.844185
H       0.596700   -1.289154    3.130694
H      -0.218641    0.272164    2.924188
H      -0.936037   -1.199894    2.238999
H       4.341659   -1.795725    3.114955
H       4.268905   -2.176732    1.365002
H       4.588959   -0.511179    1.888538
