14

N      -0.009500    1.338443    0.009979
C       1.161929    2.079581    0.002209
N       2.344905    1.562218   -0.012554
C       2.413726    0.198071   -0.020739
C       3.470794   -0.680404   -0.035933
N       3.024285   -1.987295   -0.038813
C       1.698506   -1.983943   -0.025709
C       1.203087   -0.650662   -0.013190
C      -0.003160   -0.025037    0.002446
H      -0.888661    1.831382    0.021528
H       1.022219    3.155555    0.009527
H       4.527332   -0.456062   -0.045125
H       1.125281   -2.902274   -0.025128
H      -0.971222   -0.513340    0.009453
