15

O       0.525642    1.041159   -0.299396
C       0.140840   -0.218843    0.116529
C      -0.558509   -0.444816    1.454846
O      -1.043355    0.712154    2.103453
C      -2.224187    1.104422    1.434981
O      -2.160396    0.573321    0.113816
C      -1.330422   -0.576509    0.174120
C      -3.451040    0.543693    2.159692
O      -4.336969    1.230648    2.590271
H      -0.279695    1.518124   -0.539569
H       0.830272   -0.999840   -0.194603
H      -0.305998   -1.266769    2.114665
H      -2.282459    2.195233    1.385913
H      -1.770018   -1.481103   -0.229975
H      -3.451185   -0.564709    2.259826
