21

C       0.267000    1.598959   -0.133941
C      -0.103039    0.135588    0.167120
C       0.615212   -0.430575    1.355091
C       0.100826   -0.825146    2.522863
C       1.136456   -1.476545    3.416342
O       1.016531   -2.898220    3.395712
C       2.456954   -0.972202    2.792401
C       2.102106   -0.750005    1.311002
O       2.221633   -1.954169    0.531781
H       1.338120    1.711185   -0.330099
H      -0.270414    1.959745   -1.016169
H       0.011905    2.248957    0.708908
H      -1.184407    0.058117    0.323890
H       0.135558   -0.482135   -0.708437
H      -0.951609   -0.793525    2.784958
H       1.040857   -1.199675    4.470346
H       1.098394   -3.156345    2.468368
H       2.747645   -0.018703    3.246819
H       3.273658   -1.685375    2.934579
H       2.700929    0.046692    0.849222
H       3.159803   -2.135841    0.410957
