25

C       0.080235    1.547448    0.077554
C      -0.057878    0.022171    0.052971
C      -1.497411   -0.507801   -0.085848
C      -2.168120    0.036552   -1.360096
C      -1.474921   -2.053339   -0.078383
C      -2.858536   -2.671173    0.170740
C      -3.487009   -2.055443    1.426510
C      -3.476010   -0.530893    1.315503
O      -2.170252   -0.026166    1.091172
H       1.112008    1.833704    0.304030
H      -0.180180    2.000673   -0.883846
H      -0.569780    1.977274    0.843707
H       0.543885   -0.398657   -0.762346
H       0.344919   -0.387924    0.986224
H      -1.543090   -0.170581   -2.234685
H      -3.145179   -0.417314   -1.542611
H      -2.310409    1.117163   -1.285940
H      -1.052700   -2.416324   -1.022583
H      -0.795381   -2.378036    0.719583
H      -3.515673   -2.497342   -0.690934
H      -2.768447   -3.758011    0.273271
H      -4.513789   -2.410349    1.572110
H      -2.909034   -2.349860    2.311548
H      -4.166251   -0.209003    0.518658
H      -3.814532   -0.063227    2.245491
