23

C      -0.041608    1.514012    0.253044
C      -0.073287    0.004689    0.269892
C      -1.241741   -0.765692   -0.172374
O      -0.079895   -0.662560   -0.997458
C       1.347700    2.096381   -0.028622
C       1.912892    1.817115   -1.433040
C       3.096050    2.794153   -1.546092
C       2.661084    4.057658   -0.749991
C       1.406602    3.635643    0.062000
H      -0.752230    1.874625   -0.501729
H      -0.399709    1.875484    1.227242
H       0.586743   -0.465348    1.002868
H      -1.434802   -1.753478    0.244288
H      -2.122227   -0.238183   -0.538137
H       2.051848    1.680427    0.708509
H       2.195374    0.773054   -1.587389
H       1.146411    2.053845   -2.182951
H       3.985558    2.349080   -1.086016
H       3.359117    3.019873   -2.583211
H       3.465152    4.402926   -0.093714
H       2.428485    4.891360   -1.418687
H       0.501440    4.054580   -0.395379
H       1.429186    3.992510    1.096234
