10

O      -0.155584    0.012699    0.002492
C      -0.034573    1.203294    0.007412
C       1.357979    1.884744   -0.001376
O       2.367646    1.241352   -0.014180
C       1.301629    3.418175    0.007250
C       2.610530    4.053494   -0.000627
N       3.642920    4.569452   -0.006742
H      -0.908180    1.893089    0.018087
H       0.716961    3.753456   -0.860638
H       0.731903    3.744279    0.888461
