17

C       0.038769    1.591053   -0.005907
C      -0.008503    0.057991    0.007125
C       0.631982   -0.528625   -1.257656
N       0.775353   -1.973591   -1.141373
C       1.301520   -2.564892   -0.015562
O       1.709484   -3.713702   -0.007851
C       1.278558   -1.710573    1.200624
C       0.663034   -0.526434    1.226058
H       1.072292    1.953430   -0.021158
H      -0.473323    1.992755   -0.886063
H      -0.448502    2.004322    0.882461
H      -1.065083   -0.252092    0.031855
H       0.011603   -0.308480   -2.131671
H       1.608330   -0.041485   -1.418549
H       0.917279   -2.509712   -1.985250
H       1.744329   -2.149352    2.075400
H       0.606139    0.044479    2.150793
