15

C      -0.058977   -1.208878   -0.045895
C      -0.018994   -0.005851   -0.032328
C       0.020727    1.410627    0.009166
C       0.344862    2.300848   -1.182947
C       1.181029    2.427775    0.039461
N       0.479009    3.297372    1.002127
C      -0.608616    2.270643    1.133232
C      -1.965540    2.780626    0.926256
N      -3.039445    3.170292    0.753232
H      -0.098425   -2.269825   -0.066300
H       0.789009    1.757968   -2.009540
H      -0.331194    3.106423   -1.454773
H       2.249117    2.257020    0.081152
H       0.983284    3.378167    1.878508
H      -0.568461    1.733519    2.084796
