17

C       0.446281    1.578622    0.578534
C       0.238734    0.102224    0.160180
C       0.512517   -0.828947    1.366738
C      -1.130318   -0.092495   -0.319423
C      -2.260500   -0.249235   -0.703165
C       1.312607   -0.222416   -0.921658
N       0.852030   -0.630898   -2.128192
O       2.494600   -0.103955   -0.660488
H       1.486379    1.718570    0.879472
H       0.225819    2.256454   -0.250530
H      -0.213113    1.829675    1.413392
H      -0.147066   -0.570384    2.199150
H       0.339513   -1.875605    1.102253
H       1.553225   -0.712085    1.675361
H      -3.262329   -0.384426   -1.029590
H      -0.133311   -0.717975   -2.310247
H       1.522456   -0.847897   -2.846839
