18

C       0.015420   -1.231355    0.035717
C       0.003670   -0.029349    0.028486
C      -0.011844    1.430109    0.037951
C      -0.750408    2.047934    1.243975
C      -0.287754    1.723696    2.636886
C       0.236669    2.957934    1.942600
C       1.525188    2.895529    1.153458
C       2.289325    1.627056    1.042150
N       1.362735    2.019971   -0.030148
H       0.022368   -2.293237    0.029283
H      -0.522111    1.773552   -0.869972
H      -1.784775    2.333382    1.088531
H      -1.004198    1.880168    3.436844
H       0.361171    0.871468    2.798121
H      -0.062569    3.930325    2.315687
H       2.027240    3.843379    0.978534
H       3.336132    1.646869    0.749413
H       2.028794    0.791513    1.682678
