18

O      -0.207503    1.359034   -0.039933
C      -0.048906   -0.010383    0.056925
C      -0.369206   -0.954793   -1.065224
C      -1.145296   -1.069797    0.224939
C      -0.300345   -1.797375    1.279522
C       0.810294   -0.701726    1.120450
N      -2.552276   -0.909197    0.248153
C      -3.427829   -1.601469   -0.541221
O      -3.128196   -2.432319   -1.367794
H       0.302991    1.677556   -0.791613
H      -0.942733   -0.513204   -1.872904
H       0.314661   -1.744319   -1.368241
H      -0.756182   -1.784677    2.272507
H      -0.016948   -2.824797    1.032218
H       1.800630   -1.041595    0.800988
H       0.914961   -0.089538    2.018897
H      -2.944939   -0.259104    0.912815
H      -4.475290   -1.298951   -0.335730
