18

C      -0.043816    1.207990   -0.277730
N      -0.006378   -0.246777   -0.286720
C      -0.931859   -0.900516    0.622918
C       0.915732   -0.873835   -1.071223
O       1.724101   -0.278833   -1.767565
C       0.944869   -2.411889   -1.071099
O      -0.303441   -3.013614   -1.441072
C      -0.540695   -3.174746   -2.763876
O      -1.569049   -3.616219   -3.175104
H       0.205573    1.593679    0.718763
H       0.681094    1.577063   -1.000663
H      -1.047021    1.562714   -0.541579
H      -0.930627   -1.978776    0.488709
H      -0.682513   -0.663349    1.665787
H      -1.952021   -0.546275    0.432750
H       1.735878   -2.693451   -1.770007
H       1.189175   -2.810485   -0.083272
H       0.313979   -2.864238   -3.393465
