17

N      -0.063192    1.482097   -0.017801
C       0.001062    0.078394   -0.069501
C      -1.042323   -0.823068   -0.164709
N      -0.482070   -2.062020   -0.089437
N       0.849539   -2.028701    0.037317
C       1.161909   -0.730404    0.060377
C       2.568651   -0.296365    0.201971
C       3.452110   -0.935086    1.220159
N       3.653127   -1.205538   -0.208924
H       0.749491    1.919654   -0.433932
H      -0.891406    1.848771   -0.469263
H      -2.105790   -0.680849   -0.271507
H      -0.947959   -2.950592   -0.143450
H       2.754644    0.746390   -0.046552
H       4.240034   -0.357041    1.696135
H       3.001072   -1.707386    1.836509
H       3.226178   -2.102051   -0.437495
