17

O       0.102029    0.013418   -0.572766
C       0.043974    1.133809   -0.122798
C       1.245904    1.992895    0.044754
C       1.280147    3.497060   -0.163157
C       0.000378    4.183262    0.333084
C       0.298029    3.632844    1.781869
C      -0.710909    2.874865    2.497787
C      -1.550992    2.254577    3.094794
C       1.542829    2.917867    1.213787
H      -0.925986    1.573744    0.178774
H       2.141288    1.493230   -0.315463
H       1.982371    3.926888   -0.866521
H       0.063873    5.272104    0.300534
H      -0.942017    3.875682   -0.123468
H       0.628667    4.466012    2.409843
H      -2.288157    1.697249    3.618224
H       2.475434    2.805526    1.753116
