16

O      -0.001707    0.010222   -0.327037
C       0.005907    1.171477   -0.022935
O      -1.157503    1.843807    0.196381
C      -0.995815    3.227922    0.561989
C      -0.121839    3.316238    1.822023
C       1.245534    3.044212    1.219189
C       1.247050    1.987609    0.153679
N       1.251112    3.431810   -0.199833
C      -0.114562    3.905493   -0.495888
H      -2.001307    3.632861    0.666757
H      -0.165152    4.319909    2.257077
H      -0.423116    2.591281    2.582049
H       2.151322    3.225143    1.787331
H       2.158816    1.454792   -0.088404
H      -0.408548    3.640286   -1.514285
H      -0.132103    4.994678   -0.390803
