19

C      -0.060648    1.590664   -0.054437
C       0.087262    0.079787   -0.075840
C       0.750836   -0.685137   -1.242964
C       2.171347   -0.069726   -1.325504
C       2.383524   -0.633899    0.082525
C       3.653985   -0.706008    0.868216
C       1.306138   -1.635686   -0.113884
N       1.090821   -0.530346    0.865793
H       0.878569    2.107060   -0.266904
H      -0.803595    1.914941   -0.791714
H      -0.401755    1.915445    0.934018
H      -0.874026   -0.386187    0.169735
H       0.206647   -0.963783   -2.144154
H       2.795221   -0.612299   -2.041688
H       2.270165    1.006420   -1.502152
H       3.998239    0.295965    1.148956
H       3.503566   -1.277524    1.787976
H       4.448822   -1.184921    0.286041
H       1.206054   -2.687780    0.120775
