20

C      -0.156273    1.527694   -0.000464
C       0.059066    0.018460    0.031647
C       1.082719   -0.576763   -0.954669
C       2.434970   -0.010853   -0.485098
C       2.256250   -0.005108    1.065734
C       0.819872   -0.583358    1.244268
C       0.903608   -2.020379    0.784713
N       0.858728   -3.065634    1.489045
O       1.067951   -1.982835   -0.583034
H       0.768175    2.094188    0.137378
H      -0.593355    1.833999   -0.956935
H      -0.850523    1.830697    0.789646
H      -0.903953   -0.486050   -0.102718
H       0.868614   -0.509410   -2.021016
H       3.251168   -0.655273   -0.817531
H       2.611784    0.989756   -0.889023
H       2.997317   -0.618894    1.581264
H       2.319654    1.004125    1.479446
H       0.388012   -0.469589    2.236076
H       0.962964   -3.895910    0.901809
