16

C       0.112768    1.506270   -0.234647
C       1.613285    1.304375    0.078774
C       1.122566    0.100969    0.906987
N      -0.079431    0.021877   -0.009263
C       0.366475   -0.677431   -1.232050
C       1.528587    0.062712   -1.949851
O       2.330945    0.835553   -1.054512
H      -0.408645    2.067447    0.545370
H      -0.183527    1.887921   -1.214497
H       2.213983    2.099113    0.529152
H       1.760924   -0.786292    0.922920
H       0.800685    0.354901    1.921667
H       0.660067   -1.690919   -0.939745
H      -0.480079   -0.770202   -1.922362
H       2.201137   -0.641069   -2.449445
H       1.120239    0.724983   -2.726086
