23

C       0.142166    1.336090   -0.379729
C       0.025288   -0.070298    0.202559
O       0.523239   -0.130759    1.538962
C      -1.403346   -0.676321    0.110202
C      -2.401145    0.091383    0.993928
O      -1.772618   -0.549441   -1.261718
C      -1.309567   -2.169052    0.503439
C      -2.632673   -2.919700    0.579363
O      -3.292388   -2.811589   -0.688408
H       1.189280    1.651615   -0.374945
H      -0.236555    1.358171   -1.402879
H      -0.430504    2.063656    0.208517
H       0.679325   -0.736324   -0.372550
H       0.161459    0.621388    2.018808
H      -2.431930    1.145691    0.707657
H      -3.411871   -0.304849    0.863625
H      -2.143527    0.019901    2.056211
H      -2.488899   -1.181595   -1.411179
H      -0.670543   -2.662716   -0.238318
H      -0.806686   -2.249679    1.472111
H      -2.442605   -3.975889    0.819560
H      -3.268166   -2.510424    1.376905
H      -4.178811   -3.175479   -0.612743
