19

C      -0.057259    1.534545   -0.219676
C       0.159396    0.038693   -0.136682
O       1.357549   -0.427785   -0.831595
C       1.762448   -1.157360    0.324562
C       2.054859   -0.231788    1.462008
C       0.618078   -0.637692    1.165438
C      -0.302812   -1.297397    2.158654
C      -0.964194   -0.269323    3.059149
O      -2.153039   -0.122227    3.175457
H       0.774688    2.088959    0.222307
H      -0.156091    1.843067   -1.265120
H      -0.979855    1.808777    0.303326
H      -0.709284   -0.494720   -0.546469
H       2.177505   -2.149326    0.186587
H       2.472229   -0.699749    2.349076
H       2.421831    0.769592    1.257958
H      -1.086129   -1.879353    1.662481
H       0.276586   -1.977466    2.798498
H      -0.246268    0.377724    3.613830
