19

C      -0.114208    1.573705   -0.052116
C       0.050970    0.059330    0.052243
C       0.999622   -0.543292   -1.012790
O       1.009696   -0.379411   -2.200957
C       1.936917   -1.362128   -0.112712
C       2.298234   -0.319277    0.968527
C       0.791690   -0.541472    1.277282
C       0.193040   -0.405818    2.647393
O       0.961968   -1.934950    0.813307
H       0.829616    2.101296    0.120010
H      -0.461630    1.838680   -1.054947
H      -0.845806    1.945799    0.671432
H      -0.925298   -0.432221   -0.030698
H       2.633662   -2.066352   -0.561895
H       2.936720   -0.751502    1.740683
H       2.650644    0.670462    0.667104
H       0.147060    0.648016    2.940149
H      -0.824699   -0.809180    2.663312
H       0.790962   -0.946269    3.386297
