18

C      -0.102939    1.421472   -0.131934
C       1.279599    0.908764    0.162356
C       0.118662   -0.054445    0.112134
C      -0.389547   -0.673734    1.357020
C      -0.503582   -0.091227    2.795248
C      -0.795320   -1.608248    2.836821
C      -1.704438   -1.469929    1.598002
O       0.357492   -1.834184    1.941596
H      -0.608356    1.988688    0.642317
H      -0.339387    1.736931   -1.141683
H       2.000923    0.868175   -0.645633
H       1.708607    1.128145    1.133449
H       0.064108   -0.705089   -0.755826
H       0.440329    0.207544    3.253415
H      -1.323495    0.600357    3.007812
H      -0.895597   -2.265306    3.700170
H      -2.635959   -0.905439    1.693850
H      -1.810648   -2.375055    0.998344
