23

C      -0.184803    1.528854    0.137604
C      -0.016832    0.010345   -0.015344
C      -1.383566   -0.686633   -0.027158
C       0.788728   -0.365132   -1.271350
C       2.259965    0.081493   -1.247420
O       2.941275   -0.401398   -0.100920
C       2.978774   -0.374906   -2.509494
C       4.426661   -0.595069   -2.533878
O       3.515718   -1.703476   -2.430720
H       0.776404    2.043177    0.229847
H      -0.714075    1.955301   -0.723851
H      -0.768248    1.766581    1.033114
H       0.550338   -0.356571    0.848564
H      -1.986494   -0.359886   -0.883433
H      -1.277357   -1.774689   -0.092650
H      -1.950731   -0.458933    0.881535
H       0.771009   -1.456054   -1.400729
H       0.303912    0.059800   -2.162426
H       2.315645    1.175795   -1.194574
H       3.136540   -1.330290   -0.289682
H       2.471072   -0.153189   -3.448835
H       4.967035   -0.532270   -3.476368
H       5.003897   -0.393708   -1.635247
