19

C       0.192201    1.465083    0.134966
C       0.008621   -0.011540   -0.012432
C      -0.089840   -0.729167   -1.137724
C      -0.274162   -2.209418   -0.882187
C      -0.226893   -2.306030    0.642596
C      -0.878675   -3.442146    1.381498
O      -0.231108   -4.675779    1.108695
O       1.039846   -1.893671    1.193278
C      -0.051226   -0.940094    1.164801
H       1.136436    1.699272    0.642146
H       0.194111    1.966217   -0.836605
H      -0.607694    1.907694    0.742081
H      -0.012412   -0.319110   -2.139352
H      -1.232104   -2.580007   -1.270158
H       0.509450   -2.818504   -1.346663
H      -0.883903   -3.217837    2.458414
H      -1.916785   -3.564916    1.054557
H       0.688640   -4.568603    1.376955
H      -0.395405   -0.612586    2.143012
