15

C      -0.119099    1.478004    0.013003
C       0.096229    0.002696    0.074460
O      -1.060304   -0.845475   -0.099402
C      -0.583734   -1.741805    0.949650
C       0.719026   -0.971920    1.078834
C       1.294176   -0.795474   -0.320389
O       1.228868   -1.779570   -1.302276
H       0.820115    2.007005    0.198904
H      -0.482105    1.771730   -0.978537
H      -0.855741    1.802001    0.755077
H      -1.235344   -1.674836    1.826501
H      -0.520272   -2.780505    0.606734
H       1.278897   -0.800108    1.988905
H       2.235920   -0.253751   -0.346321
H       0.297674   -1.834338   -1.558357
