15

C      -0.009996    1.469577    0.009451
N      -0.040964    0.021578    0.000979
C      -1.139181   -0.794771    0.003550
C      -0.709490   -2.090010   -0.006289
N       0.682347   -2.048457   -0.015076
C       1.145742   -0.751474   -0.011623
O       2.281183   -0.327817   -0.016138
C      -1.457001   -3.322842   -0.007934
O      -0.938623   -4.423618   -0.016877
H       1.041086    1.762332    0.001918
H      -0.506682    1.878427   -0.875770
H      -0.490818    1.867867    0.908168
H      -2.145970   -0.409205    0.012410
H       1.271644   -2.863695   -0.022979
H      -2.559117   -3.190412    0.000378
