18

C      -0.084007    1.438649    0.022754
N       1.291082    1.940683    0.173963
C       2.078522    1.000460   -0.199916
N       3.374981    0.825951    0.289444
C       3.254670   -0.356466    1.221535
C       1.787815   -0.586586    1.678712
N       0.980308   -0.957876    0.487523
C       0.041096   -0.062274   -0.253691
C       1.432476   -0.255364   -0.716453
H      -0.627196    1.675003    0.945718
H      -0.634258    1.915087   -0.800472
H       3.622609    1.653950    0.824320
H       3.601852   -1.254928    0.701000
H       3.914726   -0.190147    2.076213
H       1.750073   -1.424060    2.382450
H       1.408791    0.303246    2.196133
H      -0.799633   -0.600490   -0.677971
H       1.798673   -0.818933   -1.568451
