16

O      -0.209344    1.451771    0.163038
C      -0.040461    0.096591    0.100578
C       0.169685   -0.586371   -1.079534
N       0.335768   -1.915716   -0.745357
C       0.204771   -2.081556    0.602176
C      -0.013905   -0.842376    1.167893
C       0.247911   -0.127066   -2.471347
C       1.340519   -0.508062   -3.387748
O       0.063972   -1.149045   -3.471227
H      -0.454687    1.687361    1.062031
H       0.356936   -2.642473   -1.440635
H       0.271012   -3.057240    1.055373
H      -0.132622   -0.631329    2.220264
H      -0.270349    0.809321   -2.672183
H       1.593427    0.136225   -4.229114
H       2.152889   -1.129105   -3.013249
