14

C       0.007487    1.542494   -0.053176
N       1.391593    2.002954    0.126702
C       2.348274    1.202427    0.272505
O       2.329843   -0.187519    0.296684
C       1.074987   -0.658440    0.134499
C      -0.065876    0.044181   -0.034566
C      -1.088158   -0.960905   -0.154944
C      -0.460159   -2.160560   -0.046188
O       0.894792   -1.984557    0.135263
H      -0.600746    2.002179    0.737877
H      -0.364556    1.969077   -0.994784
H       3.371178    1.540370    0.405566
H      -2.146457   -0.810118   -0.302278
H      -0.788674   -3.184680   -0.071358
