19

O       0.278959    1.380758   -0.128600
C       0.123074   -0.009443   -0.011261
C       0.220566   -0.553029    1.446591
C      -1.318354   -0.540308    1.522550
O      -1.728391    0.720016    2.046721
C      -3.055152    1.071028    1.674981
C      -3.265180    1.029755    0.183275
C      -2.461790    0.320637   -0.608132
C      -1.375026   -0.519574   -0.026760
H      -0.305070    1.781536    0.528054
H       0.788270   -0.457635   -0.752570
H       0.621868   -1.569160    1.488158
H       0.742925    0.080165    2.166915
H      -1.832421   -1.356739    2.047669
H      -3.781950    0.419435    2.191415
H      -3.212382    2.085370    2.057781
H      -4.090992    1.611822   -0.215813
H      -2.588343    0.332816   -1.687284
H      -1.403168   -1.538856   -0.428087
