17

C      -1.225194    0.657494    0.213819
C       0.002275   -0.206940    0.143408
N       0.953918   -0.197025    0.997608
O       0.710659    0.708582    2.034453
C       0.175779   -1.184242   -0.984311
C      -0.931192   -2.278030   -1.098308
N      -1.509545   -2.108427   -2.441574
C      -0.902111   -1.123395   -2.954205
O       0.065826   -0.479294   -2.258393
H      -0.957356    1.704265    0.035813
H      -1.968362    0.362483   -0.528850
H      -1.667876    0.610312    1.212537
H       1.489953    0.598804    2.589946
H       1.178442   -1.611495   -0.926127
H      -0.518444   -3.284740   -0.988472
H      -1.712907   -2.161632   -0.340009
H      -1.084106   -0.717156   -3.943254
