18

C       0.760342    1.218214    0.303889
C       0.584599    0.139628   -0.709726
N      -0.462678    0.424997    0.268851
C      -0.737831   -0.463396    1.371540
C      -1.662198   -1.659413    1.170264
C      -0.736769   -2.864927    0.943344
O       0.612648   -2.401342    0.897262
C       0.255186   -1.516503    1.998614
C      -0.999100   -2.401531    2.332215
H       1.471868    1.030304    1.106832
H       0.656974    2.264744    0.028985
H       0.328935    0.403562   -1.732991
H       1.166863   -0.766298   -0.591882
H      -1.124841    0.148948    2.193836
H      -2.706077   -1.659126    0.885110
H      -1.004508   -3.762034    0.401744
H       1.096984   -1.258033    2.637233
H      -1.391074   -2.856439    3.230080
