19

C       0.249128    1.491134   -0.233808
C       1.330071    0.466268    0.084116
C      -0.098423    0.054543   -0.040814
O      -0.868042   -0.421876    1.063889
C      -1.338676   -1.544857    0.281745
C      -0.681853   -0.980001   -0.993714
C      -1.476066   -0.630316   -2.266650
C      -0.486629   -1.575678   -2.972498
O       0.219504   -1.815223   -1.732977
H      -0.039803    2.174279    0.557778
H       0.202114    1.910732   -1.234228
H       2.009995    0.159002   -0.703257
H       1.752344    0.480465    1.082948
H      -0.894534   -2.493425    0.606198
H      -2.431959   -1.618236    0.285974
H      -2.520671   -0.946375   -2.264152
H      -1.419118    0.417975   -2.565245
H      -0.915965   -2.498305   -3.379624
H       0.163122   -1.120450   -3.728182
