17

C      -0.093188    1.511328    0.002540
C       0.127257    0.033842   -0.055858
N      -0.747361   -0.941006    0.687912
C       0.711335   -0.945222    0.925422
C       1.265609   -1.838328   -0.208496
O       0.792873   -3.148710   -0.268529
C       0.697520   -0.769018   -1.178452
N       0.805113   -0.470895   -2.403695
O       1.527018   -1.446692   -3.109649
H       0.783528    2.045299   -0.375780
H      -0.950879    1.802788   -0.612626
H      -0.282260    1.841503    1.029424
H      -1.183957   -0.419777    1.448397
H       1.128655   -0.767905    1.908789
H       2.357400   -1.871336   -0.254744
H      -0.162374   -3.085750   -0.129656
H       1.533076   -1.087709   -4.003491
