19

C       0.324253    1.601940   -0.038278
C      -0.043806    0.110364   -0.025388
O       0.455620   -0.406446    1.206628
C      -1.579086   -0.113475   -0.134046
C      -2.321232    0.182888    1.146570
C      -3.488356   -0.615807    1.543402
O      -2.218144   -0.824878    2.164557
C       0.602350   -0.567154   -1.165828
C       1.112267   -1.126464   -2.099900
H       1.401105    1.709424    0.108321
H       0.051541    2.062683   -0.991126
H      -0.185523    2.123027    0.776501
H      -0.108024   -1.138478    1.483845
H      -1.973227    0.498708   -0.952910
H      -1.761692   -1.160038   -0.400625
H      -2.248923    1.198584    1.534203
H      -4.250903   -0.179783    2.186318
H      -3.832330   -1.420110    0.894421
H       1.577876   -1.621868   -2.915865
