24

C       0.164065    1.559968   -0.151355
C       0.024695    0.042115   -0.009872
C       0.803342   -0.517605    1.187867
C       0.685516   -2.038696    1.345392
O       1.162554   -2.713500    0.178816
C       1.375296   -2.580696    2.606871
C       0.933940   -1.961065    3.917557
C       1.803539   -4.000866    2.595962
N       2.809182   -2.915665    2.537504
H       1.210394    1.851411   -0.296854
H      -0.407090    1.933984   -1.006515
H      -0.199049    2.076822    0.743948
H      -1.034733   -0.223245    0.101233
H       0.357266   -0.447650   -0.932589
H       1.868834   -0.250848    1.104841
H       0.445667   -0.033155    2.102549
H      -0.380881   -2.297920    1.418368
H       1.816206   -2.150997   -0.247550
H      -0.155998   -2.008279    4.028061
H       1.384800   -2.497008    4.756018
H       1.239329   -0.913098    3.996136
H       1.797912   -4.568636    3.522626
H       1.631814   -4.576610    1.692984
H       3.113885   -2.843216    1.568317
