19

C      -0.059376    1.494928   -0.000162
C      -0.045888    0.039380   -0.003304
C      -0.039954   -1.165757   -0.014754
C      -0.036539   -2.599798   -0.027709
C      -0.321990   -3.458776    1.210263
C      -1.456480   -2.818798    1.996528
O      -2.302286   -2.784012    0.813230
C      -1.293067   -3.451495    0.053636
C      -1.739699   -4.444867   -0.967614
H       0.555039    1.903175    0.810386
H       0.328458    1.896941   -0.942964
H      -1.076751    1.881096    0.128428
H       0.723595   -3.056688   -0.658907
H       0.371322   -4.209740    1.565367
H      -1.890253   -3.477223    2.756662
H      -1.282953   -1.819845    2.410082
H      -2.318262   -3.946399   -1.753265
H      -0.879071   -4.930585   -1.435897
H      -2.373437   -5.212882   -0.513209
