25

C       0.165499    1.611083   -0.340470
C       0.074208    0.140545    0.103806
C       0.847268   -0.044550    1.418820
C      -1.408098   -0.300932    0.161334
O      -2.067851    0.020749   -1.066901
C      -1.710983   -1.786910    0.538075
C      -3.225556   -2.032195    0.464047
C      -0.963422   -2.780806   -0.353836
O      -1.262078   -2.065649    1.869945
H       1.211895    1.908734   -0.461912
H      -0.358988    1.788350   -1.281012
H      -0.280521    2.269327    0.414960
H       0.565616   -0.472477   -0.667661
H       0.892305   -1.084647    1.738058
H       1.867609    0.337154    1.304375
H       0.375361    0.527561    2.227185
H      -1.917104    0.320959    0.913918
H      -1.538718   -0.343748   -1.784632
H      -3.609981   -1.882113   -0.545717
H      -3.446727   -3.051780    0.792208
H      -3.759563   -1.336593    1.123547
H       0.118192   -2.691892   -0.227436
H      -1.249259   -3.802583   -0.090364
H      -1.208705   -2.625254   -1.409076
H      -1.782959   -1.526580    2.475252
