10

N      -0.040404    1.366420    0.010397
C       1.290237    1.735125   -0.000759
N       2.117414    0.721962   -0.014543
N       1.260834   -0.343122   -0.012088
N       1.359390   -1.690112   -0.020538
N       0.122368   -2.098104   -0.011065
N      -0.796976   -1.079177    0.004030
C      -0.041043   -0.002967    0.002670
H      -0.841594    1.973444    0.022131
H       1.607859    2.765847    0.001913
