21

C       0.015132    1.478563   -0.118821
C       0.012710   -0.037923    0.069786
O       0.726340   -0.412239    1.246949
C      -1.410488   -0.620611    0.067325
C      -1.437464   -2.119032   -0.011724
C      -0.695378   -3.195321    0.828180
C      -1.344644   -3.869295   -0.399280
C      -2.649450   -3.082252   -0.143505
O      -0.864436   -2.748089   -1.240745
H       1.038736    1.860600   -0.079788
H      -0.426048    1.761246   -1.079843
H      -0.564994    1.971880    0.672147
H       0.571282   -0.507754   -0.746908
H       0.306452    0.027563    1.994836
H      -1.941415   -0.297672    0.973989
H      -1.970649   -0.222653   -0.787884
H       0.390591   -3.123592    0.811109
H      -1.093685   -3.433999    1.818261
H      -1.211505   -4.877294   -0.791301
H      -3.225637   -3.311554    0.757191
H      -3.274843   -2.921439   -1.023194
