25

C       0.173978    1.557510    0.037022
C       0.041333    0.027798    0.046097
C       0.757911   -0.566122    1.266655
C      -1.425803   -0.438147    0.005136
C      -2.191413   -0.077109   -1.273283
C      -3.611478   -0.651310   -1.296578
C      -4.378820   -0.285637   -2.583453
C      -5.730162   -0.831598   -2.619144
C      -6.839795   -1.294137   -2.622464
H       1.225890    1.859061    0.079608
H      -0.259358    2.005431   -0.861985
H      -0.331122    1.997075    0.906025
H       0.537986   -0.359440   -0.855982
H       0.298581   -0.215650    2.198913
H       0.710485   -1.660269    1.264709
H       1.813471   -0.275501    1.288881
H      -1.448568   -1.529499    0.128762
H      -1.956080   -0.025945    0.876100
H      -2.244888    1.013102   -1.386839
H      -1.635381   -0.447492   -2.146355
H      -3.576003   -1.743219   -1.202978
H      -4.177073   -0.287088   -0.430693
H      -4.424302    0.807069   -2.683218
H      -3.817726   -0.644277   -3.456718
H      -7.821577   -1.697662   -2.636579
