13

N      -0.060176    1.346012    0.010644
C      -0.025611    0.073066    0.003670
N       1.146391   -0.721550   -0.007665
C       1.146715   -2.076608   -0.014894
N       0.082561   -2.815154   -0.012376
C      -1.107004   -2.131237   -0.001508
C      -1.222656   -0.770035    0.006447
C      -2.505025   -0.150399    0.017534
N      -3.566748    0.310832    0.026439
H       0.868810    1.767549    0.007246
H       2.031715   -0.233799   -0.010438
H       2.128161   -2.544680   -0.023347
H      -2.001499   -2.745649    0.000650
