17

C       0.024758    1.399435    0.091563
O      -0.022000   -0.013010   -0.109076
C      -1.232167   -0.595507   -0.057572
C      -1.290934   -1.989410   -0.254159
N      -2.438180   -2.640484   -0.219745
C      -3.560037   -1.927640    0.010653
C      -4.864127   -2.675036    0.048701
C      -3.478096   -0.554355    0.201616
N      -2.319288    0.119749    0.169255
H       1.078132    1.670478    0.012333
H      -0.561311    1.924439   -0.668380
H      -0.364512    1.669931    1.077424
H      -0.379843   -2.551958   -0.438882
H      -5.703800   -2.002314    0.241368
H      -5.043116   -3.189488   -0.901055
H      -4.848035   -3.441771    0.830101
H      -4.372732    0.034793    0.388357
