18

C      -0.094466    1.531741    0.084789
C       0.094223    0.034572   -0.003428
C       0.748204   -0.682476   -1.175206
C       1.663867    0.095749   -2.119423
C       2.811399    0.532557   -1.231061
C       2.671529    0.087639    0.019442
C       1.410908   -0.697358    0.190865
O       1.444529   -1.868296    0.954853
H       0.795133    2.074711   -0.243656
H      -0.936482    1.855129   -0.537658
H      -0.308751    1.840053    1.114355
H      -0.739875   -0.539971    0.396216
H       0.257138   -1.577390   -1.538112
H       2.012843   -0.529514   -2.951323
H       1.157523    0.956538   -2.576912
H       3.618408    1.162356   -1.589038
H       3.358990    0.263898    0.839385
H       1.228578   -1.637601    1.864375
