16

C      -0.009267    1.405779   -0.288176
N      -0.074276   -0.038935   -0.391787
C      -1.111377   -0.638057    0.029722
N      -2.295667   -0.083933    0.479832
N      -1.125936   -2.066390    0.032368
C      -2.271585   -2.748840   -0.435220
O      -2.430586   -3.935605   -0.420776
C       0.087293   -2.725444    0.373365
O       0.269504   -3.905905    0.313791
H       1.027703    1.727834   -0.408629
H      -0.595753    1.891658   -1.080846
H      -0.367889    1.794456    0.679899
H      -2.304957    0.918742    0.581999
H      -2.790491   -0.577551    1.207326
H      -3.017213   -2.033806   -0.825033
H       0.834994   -1.987102    0.700449
