20

C      -0.347414    1.536951   -0.113795
C       0.162092    0.104917    0.084398
C       0.754357   -0.492651   -1.190280
C       1.884466    0.231760   -1.718901
N       2.796217    0.808745   -2.138161
C       0.775396   -2.011963   -1.441720
C       0.269934   -2.999009   -0.413025
C      -0.161784   -1.130690   -2.226955
O      -1.519044   -1.096467   -1.909118
H       0.452200    2.200941   -0.456171
H      -1.151614    1.559617   -0.854805
H      -0.738282    1.937642    0.826121
H       0.927516    0.080899    0.868605
H      -0.660912   -0.528427    0.417708
H       1.647990   -2.348153   -1.994401
H      -0.710983   -2.718363   -0.024945
H       0.176773   -3.991972   -0.866025
H       0.961583   -3.086124    0.430495
H       0.070565   -0.939757   -3.273453
H      -1.936495   -1.880644   -2.281916
