18

C       0.069040    1.433417    0.030820
N       0.013117   -0.010766   -0.067806
C       0.120335   -0.803152   -1.161292
C      -0.018404   -2.086104   -0.680007
C       0.043263   -3.400036   -1.389010
C       1.401567   -4.100521   -1.205713
O       1.467839   -5.340712   -1.887389
N      -0.198723   -2.004695    0.671649
N      -0.181157   -0.755497    1.038074
H       1.033198    1.807978   -0.323904
H      -0.733219    1.892917   -0.553242
H      -0.055503    1.688396    1.083095
H       0.273842   -0.406056   -2.150956
H      -0.745809   -4.052539   -0.995668
H      -0.144981   -3.269297   -2.459247
H       2.196576   -3.479823   -1.632450
H       1.612268   -4.209599   -0.132125
H       0.862793   -5.948891   -1.450946
