19

C      -0.087897    1.542450   -0.086078
C       0.030504    0.029156    0.027594
O       0.858743   -0.501306   -1.037655
C       1.866093   -1.190856   -0.334316
C       1.273648   -1.944342    0.891792
C       2.581097   -1.704249    1.679495
C       2.313160   -0.378629    0.925839
O       3.001494    0.819549    0.991069
C       0.791197   -0.495912    1.245369
H       0.893637    2.011842    0.011783
H      -0.515926    1.815996   -1.054890
H      -0.744972    1.933576    0.698409
H      -0.963507   -0.433395   -0.048838
H       2.579276   -1.659344   -1.013171
H       0.661279   -2.842125    0.869282
H       2.492179   -1.667621    2.767510
H       3.455184   -2.287269    1.372217
H       3.855125    0.709571    0.558353
H       0.425288   -0.268764    2.246839
