17

C      -0.011685    1.603861    0.033873
C       0.065082    0.089540   -0.079387
C       0.914679   -0.442060   -1.249848
C       1.433344   -1.790295   -0.758028
O       2.006485   -2.639221   -1.376018
C       1.107410   -1.848953    0.780104
N       0.649839   -0.509363    1.145816
C       0.070394   -2.860881    1.023446
N      -0.755876   -3.652696    1.183302
H       0.991055    2.042095    0.111769
H      -0.496359    2.035144   -0.846220
H      -0.583361    1.893507    0.919823
H      -0.951765   -0.313523   -0.170963
H       0.389386   -0.556759   -2.201007
H       1.781269    0.209073   -1.428465
H       2.008466   -2.139657    1.327642
H       1.451511    0.041048    1.439609
