17

C       0.205628    1.428719   -0.153011
C       0.027553   -0.055208    0.042033
C      -0.095862   -0.960977   -1.196051
N      -0.423533   -2.264458   -0.572466
C      -0.809540   -1.956587    0.607691
C       0.183822   -2.201739    1.732757
O       1.142022   -3.155710    1.530596
C       0.374561   -0.640770    1.427124
N      -1.040245   -0.531825    0.938641
H       1.187115    1.642034   -0.589213
H      -0.559154    1.814455   -0.835265
H       0.122914    1.973290    0.790351
H      -0.870854   -0.561267   -1.866449
H       0.822353   -1.081292   -1.780009
H      -0.189634   -2.270963    2.757341
H       1.198708   -3.264953    0.566641
H       0.716115    0.030713    2.214157
