16

C      -0.223279    1.608355    0.007339
C       0.036517    0.107652   -0.009856
C       0.753343   -0.596981   -1.170406
C       2.216627   -0.363678   -1.226314
C       2.877753    0.855994   -0.830043
N       3.449274    1.819312   -0.542523
N       1.689923   -1.340721   -0.221522
C       1.109886   -0.532639    0.865541
N       1.369346   -0.490141    2.088449
H       0.682771    2.185018   -0.185166
H      -0.973795    1.876769   -0.742629
H      -0.605329    1.900444    0.989505
H      -0.899985   -0.430612    0.180619
H       0.263812   -1.125197   -1.980981
H       2.741162   -0.879780   -2.026148
H       2.149284   -1.109016    2.323799
