21

C       0.085361    1.701917    0.348282
C       0.070631    0.188190    0.074063
C       0.782282   -0.190569   -1.251060
C       1.836302   -1.260230   -0.889427
C       2.208516   -0.935283    0.560848
C       0.853159   -0.608720    1.202398
O       0.904318    0.018098    2.465217
C      -1.373541   -0.279567    0.118817
O      -1.955431   -0.868747   -0.756303
H       1.112563    2.077649    0.417297
H      -0.401975    2.243896   -0.468243
H      -0.430035    1.947156    1.281483
H       0.060088   -0.546626   -1.988466
H       1.272999    0.693970   -1.669811
H       1.393107   -2.261575   -0.940217
H       2.693777   -1.253558   -1.566902
H       2.729419   -1.740610    1.085410
H       2.852207   -0.044258    0.599143
H       0.324367   -1.551208    1.391686
H       1.479472    0.787456    2.397088
H      -1.883596   -0.045508    1.082374
