25

C      -0.877683    0.981859   -0.145598
C       0.187672   -0.104464   -0.098816
C       1.585279    0.184262   -0.706517
C       2.224572   -0.648987    0.442008
C       2.566903   -2.076205    0.020714
O       3.328339   -0.066964    1.116995
C       0.885296   -0.484912    1.257386
C       0.972164    0.688950    2.240359
C       0.330302   -1.712798    1.977280
H      -0.513943    1.924764    0.273772
H      -1.184634    1.176600   -1.179420
H      -1.774505    0.691285    0.413482
H      -0.221574   -1.018270   -0.546303
H       1.773164   -0.141747   -1.734055
H       1.859943    1.238608   -0.612235
H       3.423262   -2.064639   -0.666390
H       2.834305   -2.687027    0.887847
H       1.740803   -2.562537   -0.506025
H       4.114817   -0.205986    0.578854
H       1.365591    1.597039    1.778266
H      -0.017575    0.914055    2.652119
H       1.637902    0.438447    3.070733
H       0.969821   -2.005741    2.817967
H      -0.664508   -1.497820    2.384980
H       0.232594   -2.575368    1.311857
