14

O      -0.016446    1.430980    0.291777
C      -0.077040    0.042537    0.118579
C      -0.447142   -0.827021    1.270242
C      -1.520791   -0.152296    2.133827
C      -2.449165   -0.042010    0.883617
C      -1.369183   -0.717060    0.028216
H      -0.309873    1.844832   -0.526662
H       0.719917   -0.366235   -0.504494
H       0.187985   -1.645570    1.588787
H      -1.930092   -0.821996    2.892734
H      -1.222498    0.786424    2.606150
H      -3.350546   -0.650294    0.980874
H      -2.736992    0.967966    0.577076
H      -1.552101   -1.436212   -0.762625
