20

C      -0.082649    1.534779    0.142936
N      -0.016277    0.090758    0.133539
C      -1.256942   -0.657410    0.465055
C      -0.454870   -1.539992    1.441835
C      -1.048190   -2.034188    2.737291
O      -1.910246   -3.130129    2.486139
O       0.260043   -2.616430    0.775036
C       1.479753   -1.827208    0.701976
C       0.741717   -0.581370    1.212671
H       0.915851    1.954909   -0.017604
H      -0.723134    1.876848   -0.676801
H      -0.485951    1.956864    1.084005
H      -2.005197   -0.044026    0.991394
H      -1.729586   -1.161733   -0.382747
H      -0.236258   -2.309093    3.430131
H      -1.649698   -1.254293    3.215602
H      -1.391681   -3.758235    1.967571
H       2.246188   -2.223036    1.380873
H       1.870172   -1.761519   -0.317825
H       1.201230    0.059578    1.969163
