19

C      -0.055396    1.578845    0.080101
C       0.031300    0.066723    0.074167
C      -1.220545   -0.624117   -0.342124
O      -2.242040   -0.066234   -0.657216
C       1.287557   -0.714903   -0.327363
C       2.608235    0.032640   -0.324876
O       2.702149    0.679497    0.941917
C       1.899704   -0.017819    1.891574
C       0.832100   -0.747094    1.097030
H       0.881677    2.038561    0.392825
H      -0.313971    1.943140   -0.918445
H      -0.853573    1.905547    0.753022
H      -1.151770   -1.738502   -0.344818
H       1.181699   -1.570878   -0.984739
H       3.431512   -0.685201   -0.467273
H       2.692837    0.807356   -1.094178
H       2.497249   -0.751858    2.455045
H       1.512547    0.723272    2.598723
H       0.375788   -1.627897    1.535244
