23

C      -0.097511    1.471697    0.229832
C       0.041162   -0.024178   -0.068325
C       0.773552   -0.415995   -1.375388
C       0.015015    0.120984   -2.599454
C       2.221305    0.116948   -1.370151
N       0.711549   -1.897885   -1.391161
C       1.373589   -2.587384   -2.493114
C       1.218360   -4.038240   -2.346370
N       1.119465   -5.182254   -2.221349
H       0.873375    1.967661    0.323043
H      -0.669424    1.994539   -0.542581
H      -0.627224    1.614239    1.176614
H       0.573573   -0.498867    0.768024
H      -0.950549   -0.488662   -0.099588
H      -0.053747    1.210939   -2.564086
H       0.520995   -0.129967   -3.537161
H      -0.996956   -0.292451   -2.634302
H       2.771273   -0.254013   -0.497757
H       2.767897   -0.186163   -2.268787
H       2.243944    1.210041   -1.340580
H       1.078192   -2.254093   -0.513839
H       0.907276   -2.296316   -3.440463
H       2.452958   -2.382141   -2.599650
