15

N      -0.081256    1.497447    0.095296
C      -0.021149    0.093940   -0.050045
C      -1.104216   -0.965225   -0.115986
O      -0.347434   -1.736691   -1.075203
C       0.635034   -0.742352   -1.116620
N       1.623854   -0.597781   -1.868533
C      -0.323430   -0.825892    1.158702
C       0.574535   -1.823446    1.662481
C       1.327619   -2.652485    2.098326
H       0.754216    1.848755    0.553301
H      -0.143073    1.951274   -0.811029
H      -2.177855   -0.920540   -0.234409
H       1.715314   -1.374771   -2.524980
H      -0.864013   -0.254545    1.911275
H       1.993447   -3.388411    2.475968
