17

C      -0.085659    1.584393    0.009700
C       1.451816    1.282892   -0.032500
C       1.306691    0.128236    0.989013
N       1.893565   -0.977097    0.145364
C       0.869221   -2.068719    0.286465
C      -0.556092   -1.351808    0.287349
C       0.005119    0.042165    0.140473
C       1.225948   -0.030056   -0.821756
H      -0.452309    2.135758    0.880634
H      -0.532050    1.979419   -0.907716
H       2.276321    1.988246   -0.130924
H       1.388266    0.157154    2.077647
H       0.972440   -2.769507   -0.546566
H       1.051024   -2.615443    1.215839
H      -1.183059   -1.673576   -0.548716
H      -1.104258   -1.519094    1.218561
H       1.210813   -0.190719   -1.901836
