13

O       0.711151    1.120128   -0.323060
C       0.225815   -0.118408   -0.150777
C      -0.376557   -0.910922   -1.076403
N      -0.671190   -0.781255   -2.421834
C       0.149271   -1.253488   -3.427639
O       1.189998   -1.833307   -3.258620
O      -0.712421   -2.090047   -0.419839
C      -0.286174   -1.910106    0.832869
N       0.275110   -0.761774    1.065960
H       1.100137    1.388434    0.518467
H      -1.529558   -0.326701   -2.700558
H      -0.278527   -1.028350   -4.424702
H      -0.441920   -2.719677    1.528894
