11

O      -0.019670   -0.024660    0.164017
C      -0.023143    1.178378    0.068956
N      -1.169229    1.935326    0.009428
C      -1.174228    3.320997   -0.099791
C      -0.021183    3.985147   -0.152229
O       1.191599    3.349683   -0.102235
C       1.287688    1.983016    0.005316
O       2.359654    1.465030    0.046298
H      -2.036425    1.418502    0.050362
H      -2.133561    3.814847   -0.138627
H       0.073618    5.056436   -0.236648
