16

N      -0.068942    1.225280   -0.032138
C      -0.062071   -0.032796   -0.008236
O       1.055562   -0.852189   -0.031696
C       0.458876   -2.153816    0.014204
C      -0.762447   -2.123459   -0.976308
C      -1.556857   -3.350008   -0.560831
C      -1.510002   -3.324405    0.774389
C      -0.690129   -2.083883    1.085911
C      -1.206589   -1.001290    0.050487
H       0.886177    1.588232   -0.072592
H       1.218916   -2.933758    0.002521
H      -0.619708   -1.890689   -2.030945
H      -2.005753   -4.071437   -1.227860
H      -1.910089   -4.019158    1.498366
H      -0.474204   -1.811061    2.118268
H      -2.216369   -0.599426    0.078184
