23

C      -0.318973    1.576560    0.119449
C      -0.002068    0.082788    0.040208
C      -1.270560   -0.721832   -0.275976
O       0.911715   -0.116664   -1.065514
C       2.117878   -0.727582   -0.624535
C       1.756732   -1.456117    0.669679
C       0.744507   -0.488465    1.264289
C       1.133319    0.345946    2.461267
C       0.088974   -0.738043    2.590765
H       0.594150    2.160855    0.257854
H      -0.794074    1.900978   -0.810808
H      -1.005867    1.798855    0.943326
H      -1.650853   -0.436808   -1.261207
H      -1.059134   -1.794665   -0.291229
H      -2.055885   -0.536833    0.463774
H       2.477175   -1.389361   -1.419288
H       2.892929    0.032935   -0.438081
H       1.292725   -2.424074    0.445899
H       2.615959   -1.634613    1.321612
H       2.111158    0.173113    2.899652
H       0.799743    1.375310    2.519226
H      -0.942723   -0.426822    2.721495
H       0.344673   -1.646852    3.126142
