15

C      -0.076766    1.442980    0.012011
C      -0.015661   -0.009920    0.006547
C       0.031456   -1.215305    0.002408
C       0.082330   -2.628662   -0.001932
C       1.198570   -3.422727   -0.090807
N       0.731036   -4.726932   -0.053900
C      -0.620889   -4.647182    0.053610
O      -1.348229   -5.774447    0.111194
N      -1.065195   -3.424318    0.089181
H       0.926861    1.881473    0.046282
H      -0.574650    1.827075   -0.885899
H      -0.629970    1.815947    0.881617
H       2.245507   -3.188849   -0.174012
H       1.273023   -5.572779   -0.097246
H      -2.270071   -5.496374    0.184600
