17

C      -0.453429    1.379309   -0.180991
C       0.074835   -0.015860    0.088170
O      -0.938537   -0.912130    0.516703
C       0.933103   -0.723381   -1.031052
C       2.000497   -1.137644    0.043043
C       1.307573   -0.182839    1.020807
O       1.584362    0.279395    2.089525
C       0.314100   -1.766075   -1.818013
C      -0.182862   -2.633079   -2.485657
H       0.334810    2.041242   -0.552925
H      -1.259532    1.338479   -0.919716
H      -0.846774    1.819383    0.742132
H      -1.268183   -0.591596    1.364697
H       1.348990    0.045913   -1.689823
H       1.896939   -2.180565    0.354946
H       3.048850   -0.933076   -0.182594
H      -0.632025   -3.400764   -3.065503
