18

C      -0.068960    1.543089    0.023576
C       0.080717    0.055463    0.012011
N      -0.827114   -0.866332    0.733875
C       0.636624   -0.897708    0.999844
C       1.357314   -1.688365   -0.148173
C       2.713672   -2.305116   -0.023751
N       0.319685   -2.170634   -1.089287
C       0.774434   -0.754661   -1.139046
H       0.848280    2.034403   -0.320968
H      -0.885674    1.866462   -0.633139
H      -0.284312    1.908323    1.033748
H      -1.237126   -0.320706    1.494296
H       1.039303   -0.726058    1.991012
H       2.673113   -3.247204    0.536329
H       3.140417   -2.517767   -1.010102
H       3.404436   -1.635919    0.502034
H       0.820294   -2.650864   -1.839507
H       1.204143   -0.325564   -2.036406
