19

C      -0.038884    1.553718    0.019417
C       0.055373    0.023150    0.053567
C       0.757886   -0.483325    1.318558
C      -1.372190   -0.563600   -0.060739
C      -1.417935   -2.021349    0.028350
N      -1.465091   -3.171680    0.122375
O       0.695675   -0.467876   -1.145288
C       1.985650   -0.161283   -1.390854
N       2.508482   -0.514304   -2.483985
H       0.953345    2.009989    0.065346
H      -0.527028    1.888009   -0.900275
H      -0.612106    1.922366    0.875257
H       0.165434   -0.227727    2.202425
H       0.876084   -1.568712    1.283164
H       1.742678   -0.026343    1.442795
H      -2.001370   -0.145547    0.731790
H      -1.798621   -0.256173   -1.020529
H       2.487485    0.385068   -0.584834
H       3.483552   -0.223132   -2.511669
