20

C      -0.091550    1.352218    0.006518
O       0.256616   -0.008403    0.133513
C       0.706739   -0.598420   -1.062611
C       1.375215   -1.950295   -0.871245
C       0.391085   -2.958761   -0.347287
C       0.352237   -2.607144   -1.806469
C      -0.355489   -1.263248   -2.035159
C      -1.841066   -1.154460   -1.711035
H       0.759795    1.955137   -0.347217
H      -0.932323    1.508611   -0.684488
H      -0.384735    1.706376    0.998072
H       1.348577    0.107498   -1.608368
H       2.444867   -2.107330   -0.806579
H       0.818515   -3.930112   -0.119760
H      -0.397957   -2.652512    0.331648
H       0.535444   -3.347781   -2.575570
H      -0.175393   -0.909898   -3.055646
H      -2.044403   -1.372730   -0.659638
H      -2.221748   -0.148789   -1.918831
H      -2.418896   -1.858115   -2.320545
