21

C      -0.228092    1.625469    0.173143
C       0.064710    0.121216    0.113976
C       0.967651   -0.316521    1.274781
C      -1.244920   -0.680882    0.088666
C      -1.054645   -2.148122   -0.275538
O      -0.074597   -2.582757   -0.844998
N      -2.121943   -2.961472    0.070881
C      -2.185823   -4.316809   -0.209883
N      -3.205041   -4.992447    0.134466
H       0.701199    2.203740    0.161372
H      -0.836673    1.952057   -0.677120
H      -0.768484    1.888960    1.090608
H       0.589417   -0.099624   -0.822375
H       1.209816   -1.379974    1.206036
H       1.908420    0.242964    1.266922
H       0.482227   -0.133140    2.241548
H      -1.764671   -0.604193    1.053232
H      -1.930692   -0.256916   -0.658638
H      -2.921069   -2.570599    0.549805
H      -1.292609   -4.669998   -0.728331
H      -3.092697   -5.965629   -0.143439
