15

O       0.590588    0.870028    0.653715
C       0.049886   -0.288824    0.090974
C      -1.495658   -0.366698   -0.133731
O      -1.976586   -1.692139    0.092248
C      -1.804391   -2.076213   -1.288650
C      -1.287215   -0.691998   -1.708165
O      -1.869256   -0.156075   -2.830111
C       0.153473   -0.302545   -1.444855
O       0.868716    0.371904   -2.145818
H       1.097853    1.312658   -0.040409
H       0.390594   -1.192229    0.609756
H      -2.106375    0.440146    0.271363
H      -1.127791   -2.928065   -1.413945
H      -2.765346   -2.289784   -1.768598
H      -1.249730    0.491115   -3.196541
