23

C      -0.135447    1.390106    0.013388
C       1.383970    1.624811    0.241351
C       1.488317    0.165114    0.724468
C       0.145314   -0.137843   -0.002322
O       2.661136   -0.500899    0.336361
C       2.824866   -1.781696    0.886396
C       2.113014   -3.003973    0.236069
C       3.429317   -3.802290    0.445201
C       4.180210   -2.448169    0.580084
H      -0.730063    1.688171    0.881363
H      -0.583823    1.829020   -0.879721
H       1.918437    1.734968   -0.706470
H       1.699418    2.416695    0.924150
H       1.358220    0.096287    1.816385
H      -0.571013   -0.805962    0.481803
H       0.343778   -0.495287   -1.016690
H       2.629445   -1.755330    1.970395
H       1.195509   -3.379042    0.695837
H       1.931236   -2.807603   -0.824355
H       3.423709   -4.362172    1.384507
H       3.743527   -4.474147   -0.355555
H       4.549365   -2.097241   -0.387768
H       4.977318   -2.357837    1.321202
