16

O      -0.110798   -0.041895   -0.172979
C      -0.034087    1.156078   -0.042104
N      -1.107677    2.039641    0.031033
C      -0.684912    3.354309    0.306640
C       0.646862    3.434187    0.250722
C       1.729472    4.287390    0.830445
O       2.738479    3.339934    1.230348
C       2.222641    2.006301    1.154606
C       1.207673    2.058875    0.000634
H      -2.063058    1.721366    0.042074
H      -1.417855    4.101666    0.577139
H       2.192507    4.977038    0.112902
H       1.388169    4.875687    1.693398
H       3.067492    1.337118    0.979586
H       1.728297    1.715835    2.093614
H       1.729399    1.964005   -0.959730
