12

O      -0.145723   -0.043365   -0.000607
C      -0.065012    1.144845    0.008124
N       1.172000    1.860711    0.000073
N       2.317860    1.159349   -0.018512
C       3.420622    1.837505   -0.025382
C       3.484863    3.304904   -0.014249
O       4.519958    3.948156   -0.020472
C       2.142244    3.897995    0.005792
N       1.050889    3.202057    0.012403
H      -0.894399    1.867900    0.023285
H       4.343919    1.265245   -0.040406
H       2.035061    4.978786    0.015847
