19

C       0.070715    1.547336   -0.124315
C      -0.038792    0.022258   -0.051581
C      -1.476378   -0.519120    0.067404
C      -2.226624    0.018598    1.290653
O      -2.263103   -0.144882   -1.074025
C      -1.405511   -2.060364    0.213027
N      -2.238011   -2.741364   -0.618805
O      -0.663933   -2.593454    1.017951
H       1.099661    1.844806   -0.346946
H      -0.576720    1.954586   -0.907104
H      -0.209769    2.021577    0.820502
H       0.408708   -0.420465   -0.954113
H       0.536746   -0.377568    0.787087
H      -2.298643    1.107309    1.249445
H      -3.242165   -0.387245    1.314316
H      -1.710757   -0.281084    2.205205
H      -1.707838   -0.240806   -1.856049
H      -2.916085   -2.228018   -1.156518
H      -2.335640   -3.734873   -0.489651
