19

C       0.205826    1.348445    0.244420
O       0.001804   -0.034601    0.057603
C       0.565821   -0.553316   -1.128061
C       2.069960   -0.849537   -0.971189
O       2.153782   -2.154644   -0.382306
C       0.984837   -2.833976   -0.553965
O       0.819144   -3.942549   -0.137504
C       0.011324   -1.966000   -1.353085
C      -1.452617   -2.218800   -1.010360
H       1.269702    1.608148    0.347449
H      -0.212992    1.932501   -0.589424
H      -0.308735    1.626103    1.166741
H       0.373599    0.124833   -1.971577
H       2.582778   -0.855529   -1.940888
H       2.576660   -0.147291   -0.306109
H       0.193446   -2.221700   -2.406924
H      -1.674092   -1.886257    0.004617
H      -2.113972   -1.686311   -1.699693
H      -1.660728   -3.289146   -1.078754
