21

C      -0.258492    0.117093   -0.891710
O      -0.180627   -0.831032    0.151327
C       0.736929   -0.528356    1.188021
C       0.437214   -1.476126    2.340560
C      -0.954090   -1.862036    2.667544
N      -0.026285   -2.843759    2.070885
C       2.182377   -0.659801    0.735347
C       2.937658    0.518996    0.240630
N       3.251091   -0.065393    1.554341
H       0.665787    0.164358   -1.480986
H      -1.077872   -0.195957   -1.543109
H      -0.478179    1.123663   -0.504389
H       0.581155    0.512033    1.533255
H       1.165700   -1.409580    3.146150
H      -1.232871   -2.060049    3.698682
H      -1.743450   -1.462594    2.038784
H      -0.239885   -2.911846    1.077633
H       2.431890   -1.643468    0.342646
H       3.710967    0.395122   -0.512056
H       2.423201    1.476766    0.207738
H       2.843794    0.509038    2.290591
