19

C      -0.097515    1.579177   -0.329842
C       0.006046    0.077846   -0.095375
C       1.077507   -0.689156   -0.887813
O       2.356510   -0.209447   -0.451553
C       1.698062   -1.209986    0.337797
C       0.682577   -0.478150    1.233735
C       1.252216    0.486134    2.235261
C       0.482953    0.943282    3.400201
O       1.502117   -0.044184    3.545454
H       0.889868    2.047337   -0.302201
H      -0.541509    1.785763   -1.309738
H      -0.726672    2.058309    0.427053
H      -0.972138   -0.398095   -0.217889
H       1.024185   -1.105097   -1.887557
H       2.241065   -2.128259    0.527797
H       0.015448   -1.175914    1.747387
H       2.047338    1.129496    1.862086
H       0.699784    1.912995    3.846425
H      -0.536871    0.586490    3.544517
