13

O      -0.042438   -0.016133    0.027161
C      -0.053132    1.174558    0.061755
C      -1.145514    2.241344    0.223383
C      -0.028799    3.267238    0.572089
C       1.072507    2.260940    0.081038
C       2.253272    2.033408    0.878843
C       3.216084    1.830655    1.569818
H      -1.650576    2.444549   -0.726751
H      -1.904119    2.028798    0.979855
H      -0.058602    4.220224    0.044425
H       0.050591    3.449706    1.644304
H       1.343324    2.475687   -0.961359
H       4.070879    1.649568    2.173123
