20

C      -0.059691    1.558728    0.020656
C       0.012723    0.024879   -0.002746
C       0.804784   -0.504591   -1.214199
N       2.252007   -0.357367   -1.073326
C       2.725120   -0.228868    0.090297
O       2.078982   -0.219869    1.286357
C       0.690308   -0.530348    1.234270
C       0.039114   -0.578642    2.575820
C       0.313447   -1.864814    1.814692
H       0.938760    2.005001    0.030918
H      -0.583289    1.931701   -0.864993
H      -0.594502    1.913338    0.906938
H      -1.006930   -0.376088   -0.039415
H       0.580655   -1.566956   -1.376475
H       0.500308    0.017433   -2.128616
H       3.791935   -0.084469    0.250832
H       0.666525   -0.365320    3.433594
H      -0.984941   -0.230941    2.659650
H      -0.522769   -2.399213    1.375916
H       1.120040   -2.492188    2.175624
