15

O      -0.017760    0.006694   -0.135062
C      -0.030107    1.208129   -0.054057
C      -1.247253    2.101904    0.011854
C      -1.371420    2.972695    1.251085
C      -0.737573    3.518707   -0.014113
C       0.746614    3.410282   -0.050086
C       1.171705    2.128575   -0.030168
C       2.499122    1.650317    0.019884
C       3.618176    1.207609    0.061621
H      -2.148702    1.782155   -0.493745
H      -2.372042    3.308793    1.502581
H      -0.725337    2.773704    2.099136
H      -1.239852    4.308310   -0.559418
H       1.397764    4.276267   -0.040909
H       4.604863    0.816815    0.096944
