19

O      -0.096795    1.468522    0.112889
C      -0.012655    0.056206   -0.004472
C       0.742676   -0.630477    1.160564
C       0.055977   -1.983014    1.321879
C       0.767879   -3.264734    1.244443
O       0.320793   -2.744442    2.501435
C      -1.358566   -1.823453    0.839428
C      -2.108306   -0.613075    1.343111
C      -1.405626   -0.552267    0.014852
H       0.790018    1.829762    0.015478
H       0.466262   -0.214066   -0.958790
H       1.817464   -0.719811    0.983764
H       0.605722   -0.036732    2.070442
H       0.246220   -4.156232    0.896149
H       1.848193   -3.277532    1.099633
H      -1.915411   -2.710469    0.560641
H      -3.190540   -0.670748    1.320478
H      -1.713477   -0.050052    2.180964
H      -2.000804   -0.485206   -0.888104
