21

C      -0.204293    1.539208    0.033667
C       0.047550    0.026390    0.004783
C       0.862406   -0.431283   -1.245961
C       2.317082   -0.604788   -0.824281
O       2.699764    0.580392   -0.053855
C       2.349898   -0.149166    1.130219
C       2.478164   -1.519350    0.444145
C       1.153321   -1.980304    1.074276
C       0.800341   -0.472219    1.254332
H       0.738254    2.090415    0.031819
H      -0.784929    1.853188   -0.840875
H      -0.772482    1.821905    0.927223
H      -0.927117   -0.477475   -0.010734
H       0.479707   -1.374341   -1.652862
H       0.793901    0.312936   -2.046128
H       3.005171   -0.779983   -1.655327
H       2.879050    0.183528    2.024965
H       3.375720   -2.137404    0.469907
H       0.462987   -2.590433    0.483470
H       1.338063   -2.483481    2.027765
H       0.301080   -0.175948    2.179536
