19

O      -0.050109    1.369558    0.020001
C       0.027070   -0.034194    0.001977
C       0.697405   -0.686437    1.238361
C       0.132686   -2.139051    1.221689
C      -0.818041   -2.145362   -0.017452
C      -1.363214   -0.703412    0.010308
C       0.109594   -2.094039   -1.231679
O       0.382826   -2.989288   -1.986550
C       0.650718   -0.652145   -1.271096
H       0.845680    1.722961    0.015935
H       1.790104   -0.655303    1.179588
H       0.396388   -0.143866    2.138434
H       0.908063   -2.905867    1.149165
H      -0.448501   -2.346714    2.123966
H      -1.524039   -2.973824   -0.043388
H      -1.930330   -0.471770    0.915977
H      -1.961634   -0.437368   -0.865661
H       0.271167   -0.142408   -2.164075
H       1.744450   -0.636392   -1.309727
