18

C      -0.346696    1.454589    0.007720
C       0.133024    0.005951    0.011336
N       0.788941   -0.318316   -1.266777
C       2.247311   -0.146148   -1.345079
C       1.643045   -1.499436   -1.232881
C       1.701670   -2.254258    0.073584
O       1.782545   -1.384642    1.206642
C       0.978776   -0.288696    1.260931
O       0.982127    0.389530    2.250465
H       0.502861    2.140303   -0.058822
H      -0.997012    1.620336   -0.853930
H      -0.888432    1.680457    0.927063
H      -0.742814   -0.656883    0.072570
H       2.613874    0.204912   -2.304677
H       2.779807    0.247935   -0.482982
H       1.587449   -2.140995   -2.111173
H       0.816510   -2.898276    0.172242
H       2.586121   -2.894816    0.129531
