17

C      -0.293048    1.463146   -0.056653
C      -0.168385   -0.050399   -0.000447
O      -0.230641   -0.695850    1.030154
N       0.010372   -0.662256   -1.206282
C       0.440645   -0.177535   -2.531971
C       0.804174   -1.621303   -2.831950
C       0.398013   -2.062519   -1.436087
N       1.256737   -2.155040   -3.881792
O       1.440775   -3.533391   -3.705187
H       0.672144    1.918726   -0.305306
H      -1.013737    1.781334   -0.816155
H      -0.608704    1.821479    0.922678
H      -0.360258    0.250391   -3.146295
H       1.287839    0.519757   -2.512742
H       1.213422   -2.412261   -0.792504
H      -0.425967   -2.781982   -1.383743
H       1.780123   -3.808991   -4.563858
