18

N       0.025217    1.360641    0.413515
C      -0.049092    0.129056    0.076343
N      -1.232838   -0.544890   -0.022938
C      -2.508284    0.134671    0.136069
C      -3.630596   -0.866651    0.214586
C      -4.977601   -0.527354   -0.296437
N      -4.141063   -1.504612   -1.017674
C       1.168740   -0.723118   -0.213020
O       2.289612   -0.293083   -0.154488
H       1.012804    1.617835    0.464875
H      -1.239274   -1.432375   -0.500647
H      -2.451635    0.739685    1.047373
H      -2.684398    0.840914   -0.690904
H      -3.559186   -1.559351    1.050938
H      -5.858395   -0.942893    0.183451
H      -5.122793    0.456202   -0.735796
H      -3.730630   -1.050132   -1.831754
H       0.967464   -1.784409   -0.486305
