17

O      -0.215330    1.512238   -0.154061
C       0.075230    0.125904    0.019576
C      -1.209664   -0.775626    0.147732
C      -1.378149   -1.604461   -1.171366
C      -0.038111   -1.381942   -1.780120
C       0.769465   -0.490057   -1.158698
C       1.971565   -0.429326   -1.940176
C       1.775183   -1.304636   -2.964635
O       0.539015   -1.901242   -2.884870
H      -0.531134    1.626605   -1.057286
H       0.656600    0.092707    0.946052
H      -1.087374   -1.461131    0.990918
H      -2.075001   -0.144757    0.362952
H      -1.595874   -2.657584   -0.964850
H      -2.193174   -1.233455   -1.805464
H       2.856691    0.165126   -1.775566
H       2.381774   -1.615988   -3.799056
