21

C       0.087402    1.292245   -1.007028
C      -0.001183    0.101154   -0.076277
C       1.143596   -0.818470    0.036959
O       0.889228    0.160126    1.048136
C      -1.397782   -0.417727    0.150779
C      -1.948808   -1.156588    1.340483
C      -1.445160   -0.623397    2.691582
C      -1.926944    0.807795    2.292991
C      -2.472173    0.243884    0.969954
H       1.126137    1.606467   -1.135785
H      -0.329908    1.049018   -1.990346
H      -0.482986    2.134994   -0.602857
H       0.972691   -1.850807    0.338603
H       2.038591   -0.647733   -0.560329
H      -1.806291   -0.813622   -0.779912
H      -2.438464   -2.114787    1.204707
H      -2.037574   -1.025558    3.517189
H      -0.385801   -0.748834    2.911654
H      -2.717395    1.179549    2.948489
H      -1.154774    1.576587    2.207031
H      -3.423940    0.515864    0.527650
