20

C      -0.052706    1.635582    0.053444
C       0.074916    0.125000    0.026753
O      -1.213962   -0.380516   -0.293571
C       1.146707   -0.575767   -0.796325
C       2.370060   -0.765724    0.030283
C       2.144980   -0.147136    1.396090
C       0.700627   -0.659974    1.225861
C      -0.137295   -1.091131    2.392172
N       1.228198   -1.729589    0.180953
H       0.902664    2.119916    0.265115
H      -0.414178    1.992716   -0.915369
H      -0.779352    1.940389    0.813163
H      -1.123248   -1.332495   -0.425031
H       1.130540   -0.754400   -1.866596
H       3.308794   -1.081072   -0.412394
H       2.671687   -0.713334    2.169996
H       2.314557    0.923023    1.548792
H      -0.301078   -0.248162    3.073609
H      -1.115777   -1.449070    2.060341
H       0.358849   -1.889123    2.952879
