20

O      -0.367721    1.679190   -0.062261
C      -0.149814    0.317864    0.229402
C      -1.476349   -0.449805    0.263074
N      -2.177376   -0.179464   -0.995195
C      -1.974147   -1.177233   -2.137666
C      -3.045347   -2.100426   -1.469141
C      -3.610457   -0.684147   -1.126667
C      -3.923846   -0.152933   -2.530778
C      -2.823114   -0.483864   -3.210296
H      -1.074403    1.661836   -0.726818
H       0.523070   -0.150993   -0.511218
H       0.347011    0.252570    1.203983
H      -1.292507   -1.513529    0.483960
H      -2.095476   -0.042657    1.071634
H      -0.958853   -1.495608   -2.371219
H      -3.639211   -2.748183   -2.117686
H      -2.678843   -2.654505   -0.602032
H      -4.297199   -0.487767   -0.303475
H      -4.815569    0.372106   -2.839167
H      -2.546692   -0.310074   -4.239555
