16

C       0.004460   -1.167684    0.028686
C      -0.007640    0.034932    0.037604
C      -0.007196    1.470108    0.026745
C      -0.837434    2.238505   -1.040964
C      -0.052206    3.541785   -0.842282
O       1.278812    3.140585   -1.288596
C       1.331818    2.393351   -0.086196
C       0.404798    3.337646    0.684418
N      -0.290828    2.208720    1.298478
H       0.014515   -2.229514    0.026279
H      -0.722275    1.862070   -2.058500
H      -1.895923    2.278932   -0.769623
H      -0.399918    4.478586   -1.272904
H       2.296565    1.989214    0.208879
H       0.706591    4.193289    1.284836
H      -1.285733    2.341723    1.479822
