18

C      -0.030570    1.408259    0.076016
N       0.020818   -0.039843    0.000306
C       0.639879   -0.663236    0.911295
O       1.264887   -0.092863    2.016672
C       1.771300   -1.111630    2.795053
N       2.509419   -0.696057    3.893555
C       1.501849   -2.294666    2.225299
N       0.828799   -2.020059    1.017189
C       0.251162   -2.981353    0.111694
H       0.964643    1.870662   -0.003075
H      -0.638880    1.786427   -0.750197
H      -0.477025    1.769871    1.014386
H       2.030960    0.020311    4.429564
H       2.764191   -1.467336    4.496362
H       1.738996   -3.297332    2.533242
H      -0.583264   -3.526759    0.572087
H      -0.122512   -2.430043   -0.752072
H       1.004087   -3.705526   -0.218370
