23

C      -0.776555    1.510954    0.040945
C      -0.113929    0.134720    0.018613
C      -1.102664   -0.913255   -0.505081
C       1.266303    0.047675   -0.709748
C       1.788264   -0.834828    0.450361
O       3.060952   -0.533114    1.004224
C       0.600102   -0.364773    1.331634
C       0.992622    0.697849    2.360331
O       1.768768    0.141659    3.406476
H      -0.098330    2.291493    0.396335
H      -1.102735    1.790850   -0.967637
H      -1.663320    1.516178    0.685361
H      -1.443971   -0.657187   -1.514948
H      -0.657558   -1.912796   -0.548441
H      -1.985618   -0.973014    0.141450
H       1.277972   -0.373121   -1.719512
H       1.783969    1.011310   -0.717402
H       1.722889   -1.904406    0.215148
H       3.745992   -0.844579    0.405417
H       0.079202   -1.167889    1.861953
H       1.523729    1.531348    1.876645
H       0.092506    1.113765    2.825621
H       2.569582   -0.190517    2.981693
