15

C       0.262927   -1.209692   -0.051073
C       0.155411   -0.013615   -0.021500
C      -0.023651    1.417214    0.008420
C      -0.175106    2.240279    1.359838
C       1.056973    2.884712    2.024380
C       2.505141    2.494938    1.698174
N       2.334328    1.917907    0.338407
C       1.193644    2.338419   -0.034041
N       0.522188    3.415253    0.767577
H       0.376575   -2.265508   -0.071729
H      -0.862523    1.735258   -0.619885
H      -1.156596    2.363713    1.814653
H       0.837703    3.456748    2.924051
H       3.154968    3.379720    1.754245
H       2.935809    1.713514    2.330932
