23

O      -0.066241    1.504946   -0.094973
C       0.044782    0.090297   -0.053033
C      -1.362299   -0.490490   -0.007419
C      -1.377736   -2.021152    0.037123
C      -2.793506   -2.605779    0.086271
C      -2.813009   -4.137536    0.127773
C      -4.237097   -4.717681    0.190801
C      -4.233916   -6.226610    0.118544
O      -4.719574   -6.963225    0.937601
H       0.820380    1.876113   -0.119291
H       0.577041   -0.294527   -0.938878
H       0.611797   -0.239243    0.833476
H      -1.877733   -0.081799    0.870450
H      -1.913371   -0.132385   -0.885832
H      -0.851675   -2.420286   -0.841325
H      -0.812410   -2.369330    0.912738
H      -3.320048   -2.211579    0.965629
H      -3.362175   -2.259908   -0.787780
H      -2.297324   -4.533515   -0.757729
H      -2.242160   -4.488698    0.996972
H      -4.757757   -4.411314    1.102895
H      -4.812469   -4.347328   -0.670813
H      -3.719365   -6.636790   -0.783762
