21

C      -0.050288    1.514479   -0.099368
C       1.296869    0.840378    0.032969
C       0.028047    0.016359    0.012146
C      -0.161438   -0.648487    1.374839
C       1.004577   -1.632183    1.600094
C       2.342783   -0.837656    1.521307
C       2.008262    0.667666    1.375028
C       1.073696    1.037463    2.529116
O      -0.165922    0.324891    2.421420
H      -0.469943    2.071135    0.728925
H      -0.286543    1.921096   -1.076754
H       1.941312    0.840751   -0.841120
H      -0.217095   -0.593003   -0.852591
H      -1.128009   -1.153916    1.451305
H       0.882698   -2.104698    2.579291
H       0.966687   -2.428775    0.849767
H       2.945560   -1.002695    2.420449
H       2.946321   -1.165306    0.669054
H       2.915227    1.277645    1.435513
H       1.547942    0.792754    3.491232
H       0.850079    2.111646    2.534882
