18

C       0.143123    1.486765    0.355948
C      -0.079545    0.048265    0.048816
C      -1.099629   -0.815946    0.291446
C      -0.657417   -2.048098   -0.276040
C      -1.382637   -3.359051   -0.303975
C      -0.617588   -4.482108   -0.995500
O      -1.443353   -5.636574   -0.930060
N       0.533232   -1.921853   -0.813208
O       0.904859   -0.591713   -0.609461
H       1.034609    1.621084    0.977292
H       0.292331    2.064810   -0.561894
H      -0.716922    1.896286    0.888841
H      -2.029282   -0.613418    0.797401
H      -1.615399   -3.669434    0.722099
H      -2.350400   -3.230341   -0.804194
H      -0.396715   -4.197992   -2.033980
H       0.345989   -4.641810   -0.491552
H      -0.978750   -6.359021   -1.361651
