15

C       0.017336    1.535912    0.058078
C       0.051241    0.016587    0.036633
C      -1.123058   -0.616683   -0.510218
C      -2.102535   -1.136727   -0.974877
C       1.318064   -0.767731   -0.171442
O       2.453866   -0.033881    0.344570
C       1.946205   -0.150600    1.641514
O       2.468806    0.185052    2.651086
C       0.682705   -0.834139    1.189189
H       0.971791    1.947748    0.388871
H      -0.190985    1.914254   -0.946663
H      -0.772900    1.888716    0.725782
H      -2.969248   -1.591007   -1.388403
H       1.504949   -1.522614   -0.921428
H       0.128732   -1.606582    1.700215
