21

C       0.038829    1.524902    0.324853
C       0.021402    0.053841   -0.116202
C      -1.360263   -0.524498   -0.162732
N      -2.126053   -0.907962    1.049225
C      -1.870052   -1.907098   -0.022503
C      -2.874521   -1.671301   -1.204751
C      -3.230464   -2.701645   -2.228213
N      -3.765483   -0.548439   -0.829022
C      -2.388510   -0.277454   -1.323216
H       1.059041    1.920287    0.335017
H      -0.556057    2.145579   -0.352996
H      -0.382538    1.637918    1.328338
H       0.483939   -0.038605   -1.108220
H       0.637006   -0.548387    0.564947
H      -1.429445   -1.093444    1.773816
H      -1.341390   -2.831994    0.175726
H      -3.943586   -3.431966   -1.827054
H      -3.684386   -2.237492   -3.110687
H      -2.342638   -3.252207   -2.560116
H      -4.383853   -0.399977   -1.628809
H      -2.207774    0.328422   -2.203186
