17

C       0.190230    1.540536    0.068104
C      -0.033752    0.032217   -0.102580
C      -1.472848   -0.367839   -0.015538
O      -1.895985   -1.603165   -0.594356
C      -2.577862   -0.406904   -0.979307
C      -3.601007   -0.020913    0.147798
N      -3.524437   -1.057960    1.204215
C      -2.498015    0.009705    1.131702
H       1.253653    1.783567   -0.010399
H      -0.343911    2.108320   -0.700399
H      -0.156503    1.892243    1.045169
H       0.348065   -0.303132   -1.072957
H       0.532763   -0.515983    0.662148
H      -2.634984   -0.167430   -2.034737
H      -4.455905    0.632356    0.036306
H      -4.181074   -0.772517    1.932340
H      -2.317487    0.690719    1.952797
