15

O      -0.884933    1.051235   -0.848423
C      -0.268442   -0.025018   -0.312259
C       0.796099   -0.713318   -0.835136
N       1.035241   -1.714331    0.095388
C       0.133814   -1.580329    1.093890
C       0.076226   -2.488218    2.292431
C       1.094191   -3.533019    2.272086
C       1.942714   -4.383353    2.229615
N      -0.677030   -0.558925    0.876653
H      -1.589217    1.289499   -0.233706
H       1.376903   -0.595531   -1.731748
H       1.747278   -2.425367    0.055916
H       0.180391   -1.885414    3.203763
H      -0.921375   -2.942322    2.350265
H       2.682480   -5.145489    2.218439
