18

C       0.058305    1.534590   -0.056190
O       1.305225    1.506352    0.669998
C       1.448922    0.096214    0.424707
C      -0.016195   -0.010949   -0.080833
C      -0.995952   -0.608781    0.930101
C      -0.948090   -2.125504    0.814199
O      -1.198538   -2.544365   -0.537561
C      -0.728136   -1.724364   -1.503474
N      -0.169704   -0.591589   -1.400874
H      -0.727827    2.063019    0.495793
H       0.168970    1.964895   -1.058642
H       2.186016   -0.117696   -0.359080
H       1.703138   -0.463152    1.334358
H      -0.754536   -0.297566    1.951357
H      -2.010626   -0.257370    0.707383
H       0.036159   -2.509359    1.114584
H      -1.708323   -2.617977    1.424117
H      -0.896108   -2.173243   -2.480842
