20

C      -0.348971    1.458571   -0.116885
C      -0.144535    0.017489   -0.092688
C       0.034668   -1.173927   -0.080844
C       0.203969   -2.629623   -0.037308
O      -1.056459   -3.281467    0.143280
C       0.855712   -3.176190   -1.314830
C       2.228593   -2.613265   -1.606466
C       0.510889   -4.560092   -1.723031
N      -0.008072   -3.398293   -2.479954
H       0.602002    1.991387   -0.009111
H      -0.806442    1.780344   -1.058520
H      -1.003046    1.781092    0.700532
H       0.867565   -2.879478    0.807216
H      -1.619334   -2.685186    0.645632
H       2.930246   -2.846110   -0.796879
H       2.616127   -3.041541   -2.533441
H       2.190191   -1.525750   -1.722098
H       1.250485   -5.156677   -2.250696
H      -0.186122   -5.119179   -1.108772
H      -0.973144   -3.249198   -2.189306
