14

O       0.000607    0.010166    0.068685
C      -0.011215    1.203758    0.072351
C      -1.135392    2.265636    0.099225
C      -0.046238    3.372468   -0.000477
C       0.552621    3.874675    1.340539
O       0.535627    2.778301    2.262281
C       1.606638    2.848443    1.312399
C       1.091048    2.286916   -0.040538
H      -1.779324    2.197284   -0.783154
H      -1.753469    2.255219    0.999185
H      -0.133464    4.114036   -0.791552
H       0.535600    4.872993    1.762600
H       2.616305    2.831273    1.704931
H       1.822347    2.214147   -0.845138
