21

C       0.013623    1.478902    0.139523
C       1.361930    0.803512   -0.049625
C       1.693100    0.042305    1.233400
O       0.409013   -0.646504    1.214511
C       0.089158   -0.008199   -0.032582
C      -0.422695   -0.792741   -1.211724
C       0.686253   -0.901771   -2.287408
C       1.403832    0.439562   -2.534786
C       2.202154    0.919422   -1.296428
H      -0.253682    1.890386    1.109139
H      -0.353454    2.039653   -0.714525
H       2.515796   -0.673470    1.112039
H       1.839304    0.618385    2.155544
H      -0.730667   -1.786715   -0.873392
H      -1.309348   -0.311138   -1.640053
H       1.427934   -1.645054   -1.965962
H       0.255371   -1.273043   -3.223273
H       2.087350    0.344706   -3.384988
H       0.664892    1.199769   -2.823097
H       2.580043    1.936121   -1.458992
H       3.083193    0.273921   -1.182356
