18

O       0.099623    1.374226   -0.115088
C       0.031828   -0.016028   -0.018126
C      -0.391813   -0.690784    1.278014
C      -0.925351    0.173413    2.350685
C      -2.123975    0.769019    2.265746
C      -3.058717    0.513794    1.149378
C      -2.901344    1.101953   -0.220845
N      -2.610881   -0.310269    0.018168
C      -1.259087   -0.812696    0.024531
H      -0.112159    1.740034    0.754160
H       0.846685   -0.483057   -0.565722
H       0.187027   -1.550132    1.602641
H      -0.304763    0.324099    3.229780
H      -2.493135    1.378575    3.085996
H      -4.078740    0.302791    1.471364
H      -3.799174    1.281399   -0.807214
H      -2.076603    1.775750   -0.410771
H      -1.199859   -1.771808   -0.482875
