19

C      -0.948032    1.506885   -0.147020
O      -1.337551    0.173370    0.086659
C      -0.289718   -0.753166   -0.105711
C      -0.832869   -2.130245    0.104188
N      -2.151984   -2.552071   -0.408074
C      -1.849466   -2.640378    1.046855
C      -0.977753   -3.912146    1.306017
N      -0.750731   -4.611191    0.017576
C       0.043373   -3.407575    0.361660
H      -1.825685    2.136171    0.017674
H      -0.148583    1.823439    0.540774
H      -0.592441    1.652566   -1.178682
H       0.127155   -0.655543   -1.124535
H       0.536953   -0.558544    0.600431
H      -2.674533   -1.680689   -0.517934
H      -2.438422   -2.111776    1.784076
H      -0.861791   -4.414708    2.257191
H      -0.154611   -5.411918    0.232660
H       1.124391   -3.428660    0.416927
