19

C       0.178359    1.490320    0.061400
C      -0.081751   -0.011340   -0.117214
C      -1.528808   -0.378381   -0.022180
O      -1.962992   -1.610423   -0.656013
C      -2.636806   -0.367442   -0.975217
C      -3.667360   -0.030375    0.132913
C      -3.662217   -1.009133    1.280378
O      -3.650210   -2.392113    1.224826
C      -2.496970   -0.057062    1.159312
H       1.246743    1.706291   -0.026016
H      -0.348311    2.075787   -0.698819
H      -0.151298    1.842488    1.043656
H       0.283904   -0.348950   -1.092973
H       0.475724   -0.577314    0.641123
H      -2.691365   -0.099462   -2.023796
H      -4.425787    0.731815    0.001349
H      -4.341996   -0.690456    2.068702
H      -3.032163   -2.616551    0.515531
H      -2.258897    0.679425    1.917390
