19

C      -0.064721   -1.219076   -0.027064
C      -0.047573   -0.017542    0.000623
C       0.003054    1.439693    0.034896
C       1.437091    2.002697   -0.005595
C       2.172259    1.636458   -1.302276
O       3.445206    2.264683   -1.350529
C       3.327211    3.655672   -1.231260
O       2.750251    4.050927   -0.014173
C       1.436488    3.532109    0.122696
H      -0.091818   -2.280306   -0.050901
H      -0.572637    1.844135   -0.809280
H      -0.499091    1.798909    0.942940
H       2.008602    1.590992    0.833464
H       2.343625    0.560634   -1.374312
H       1.566087    1.947182   -2.172615
H       4.337201    4.068912   -1.255443
H       2.727696    4.054390   -2.073829
H       0.775554    3.969920   -0.647431
H       1.072522    3.854453    1.102641
