21

C      -0.115928    1.458539    0.023719
C      -0.002645   -0.036082   -0.039996
C       0.029933   -0.898202   -1.303726
C      -0.218931   -2.122445   -0.384823
C       1.085105   -2.219021    0.449762
C       0.672023   -0.892714    1.092590
C       1.244285   -0.288030    2.340713
C      -0.768339   -1.102945    0.717962
O      -1.868608   -1.072386    1.537594
H       0.812507    1.949024   -0.292986
H      -0.915835    1.818307   -0.634859
H      -0.345024    1.807665    1.034962
H      -0.825961   -0.679263   -1.951406
H       0.946286   -0.913748   -1.906605
H      -0.715640   -3.015743   -0.758261
H       1.049732   -3.031908    1.181963
H       2.028943   -2.268099   -0.107461
H       2.257268    0.097503    2.174084
H       0.630628    0.537008    2.713653
H       1.301736   -1.035664    3.140025
H      -2.634575   -0.800847    1.018714
