10

N      -0.011300    1.198336    0.448917
C      -0.016408    0.020546    0.004887
O       1.125879   -0.581080   -0.470110
N       1.117018   -1.894199   -0.964775
C       0.000315   -2.496649   -0.950310
O      -1.202417   -2.045346   -0.518745
C      -1.304269   -0.762770   -0.011902
O      -2.355723   -0.366059    0.366892
H       0.926390    1.603485    0.398663
H      -0.039001   -3.511514   -1.325492
