21

C       0.087265    1.541167   -0.062423
C       0.068773    0.019933   -0.008018
O       0.607275   -0.461101   -1.231550
C       0.669497   -1.874265   -1.274407
C       1.738946   -2.391636   -0.312613
C       1.470576   -1.921554    1.129089
C       2.656452   -1.195407    1.797285
O       2.086484    0.093308    1.487328
C       0.805408   -0.521113    1.213217
H       1.119024    1.898608   -0.080661
H      -0.427109    1.886931   -0.962384
H      -0.412777    1.963755    0.814081
H      -0.974666   -0.338663    0.077468
H      -0.317367   -2.308164   -1.034744
H       0.910707   -2.143855   -2.306862
H       1.797705   -3.484472   -0.359096
H       2.702460   -2.000874   -0.657185
H       0.986790   -2.700794    1.721670
H       2.730001   -1.353560    2.882638
H       3.644983   -1.329878    1.343872
H       0.146222   -0.421015    2.090069
