19

C      -0.024098    1.569374    0.012575
C      -0.044741    0.068485    0.002147
C       0.732524   -0.866182   -0.976498
O       1.623292   -1.315764    0.068814
C       0.641568   -0.878906    1.035065
C      -0.624218   -1.827377    1.028338
C      -0.430597   -2.932287   -0.034289
C      -0.528170   -1.813929   -1.096007
C      -1.272459   -0.895703   -0.059459
H       1.003636    1.947024    0.061384
H      -0.490144    1.979807   -0.890750
H      -0.569910    1.968632    0.875324
H       1.259806   -0.568082   -1.884683
H       1.084571   -0.592596    1.990819
H      -1.074550   -2.049528    1.996012
H       0.488312   -3.521839    0.003525
H      -1.301997   -3.591424   -0.077864
H      -0.889219   -2.023579   -2.103099
H      -2.323294   -0.616773   -0.105203
