18

C       0.048223    1.493806    0.081948
C      -0.100088    0.007631   -0.037969
C      -0.972714   -0.822852    0.815744
N       0.499094   -0.940046    0.968145
C       1.082077   -1.726894   -0.177978
C       0.163089   -2.234719   -1.239084
C       0.536213   -0.763424   -1.236992
C       1.191179   -0.122712   -2.321034
C       1.736763    0.434833   -3.238960
H       1.063582    1.806904   -0.179263
H      -0.645153    2.007693   -0.593481
H      -0.162151    1.814706    1.105715
H      -1.419364   -0.328246    1.673891
H      -1.563794   -1.647393    0.435923
H       2.093330   -2.091108   -0.051952
H       0.678002   -2.792798   -2.014548
H      -0.849611   -2.577012   -1.061762
H       2.222009    0.922858   -4.047157
