15

O      -0.015430    0.031516    0.217116
C      -0.039288    1.220924    0.090878
C      -1.216902    2.203465    0.000695
O      -0.812620    3.051256    1.129926
C       0.240617    3.508622    0.234841
C      -0.666340    3.283733   -0.994943
C       0.238004    2.796231   -2.119208
O       1.419882    2.306441   -1.448790
C       1.112684    2.257752   -0.055953
H      -2.240766    1.838432    0.035508
H       0.708836    4.449265    0.516556
H      -1.379482    4.071782   -1.230137
H      -0.213231    1.997044   -2.720319
H       0.533663    3.608871   -2.791626
H       2.022021    2.087069    0.514952
