18

C      -0.004899    1.610167   -0.054209
C       0.048757    0.084053   -0.018282
N       0.813979   -0.484668   -1.124164
C       1.558041   -1.601492   -0.837446
O       2.112723   -2.319968   -1.637092
C       1.577573   -1.728471    0.695516
O       2.794181   -1.187091    1.251444
C       2.107203    0.010005    1.679821
C       0.738910   -0.541923    1.213120
H       0.996357    2.048614   -0.049253
H      -0.519438    1.957644   -0.956131
H      -0.559028    1.991480    0.809455
H      -0.986924   -0.288786   -0.051205
H       0.616789   -0.255591   -2.086933
H       1.386092   -2.753367    1.023761
H       2.205710    0.164891    2.759869
H       2.473642    0.900988    1.157369
H       0.034814   -0.736237    2.021146
