18

C      -0.068046    1.523238    0.166341
C       1.463449    1.564019   -0.203480
C       1.291009    0.133167   -0.706927
O       0.496021    0.156246   -1.941181
C      -0.330496   -0.807181   -1.251776
C       0.670005   -2.009175   -1.110603
N       1.804435   -1.932349   -2.063470
C       1.916273   -1.271388   -0.747414
C      -0.041586   -0.045952    0.066785
H      -0.312190    1.896236    1.162410
H      -0.702748    2.013834   -0.570155
H       1.796965    2.300116   -0.937944
H       2.095953    1.619352    0.687461
H      -1.307692   -0.986227   -1.703592
H       0.376529   -2.955259   -0.670914
H       2.308231   -2.817451   -2.012558
H       2.619793   -1.609815    0.003315
H      -0.079205   -0.585714    1.016054
