20

C      -0.035136    1.540766    0.032888
C       0.126500    0.053388    0.009450
N      -0.793079   -0.861185    0.721665
C       0.668731   -0.924872    0.998429
C       1.308659   -1.787581   -0.111309
C       0.430549   -2.905473   -0.750540
C      -0.099862   -1.893461   -1.816551
C       0.746700   -0.764048   -1.160324
O       1.543387    0.067095   -1.952003
H       0.852087    2.027580   -0.379956
H      -0.899350    1.856760   -0.563465
H      -0.183539    1.899022    1.057861
H      -1.217540   -0.324065    1.477589
H       1.034424   -0.769380    2.007349
H       2.381786   -1.951983   -0.008744
H       1.013632   -3.727419   -1.172654
H      -0.336879   -3.309709   -0.090762
H       0.244711   -2.113218   -2.833170
H      -1.179233   -1.734172   -1.834479
H       2.038218   -0.483642   -2.567326
