21

C      -0.118478    1.519578    0.005654
C      -0.018611    0.011595    0.047681
O      -1.164832   -0.658117   -0.414616
C       1.319173   -0.666745   -0.186671
C       0.672604   -0.686213    1.176825
C       1.275176   -0.113097    2.479446
C       0.792274   -1.378060    3.207608
C      -0.692951   -1.544098    3.047009
C       0.204461   -1.930708    1.903564
H       0.769509    1.991464    0.435772
H      -0.214127    1.875774   -1.028103
H      -0.996761    1.862805    0.562186
H      -1.231902   -0.506198   -1.364111
H       1.307019   -1.593299   -0.752688
H       2.200754   -0.049638   -0.337288
H       2.364789   -0.035825    2.428917
H       0.869566    0.836417    2.846628
H       1.347839   -1.902048    3.975203
H      -1.127758   -2.375281    3.593518
H      -1.343143   -0.676489    2.963536
H       0.236047   -2.937590    1.506289
