18

C      -0.007986    1.595140   -0.047995
C       0.002556    0.066639    0.027175
C      -1.406621   -0.533576   -0.026944
C      -1.379646   -2.071015    0.105647
O      -0.802029   -2.473928    1.314942
C      -2.778360   -2.650838   -0.006181
O      -3.288311   -3.287129    0.886055
C      -3.495827   -2.406642   -1.266437
N      -4.040095   -2.214899   -2.268428
H       1.008842    1.997151   -0.010146
H      -0.471553    1.946677   -0.976350
H      -0.568503    2.029120    0.787213
H       0.597601   -0.341522   -0.800360
H       0.487792   -0.262801    0.951301
H      -2.018357   -0.129304    0.789421
H      -1.896401   -0.259530   -0.969538
H      -0.801867   -2.478388   -0.743769
H      -1.474633   -2.984067    1.790904
