21

C      -0.011019    1.557016    0.277804
C       1.520685    1.587872   -0.007879
C       1.449063    0.120847   -0.530358
C      -0.027119    0.025226   -0.032740
C      -0.803844   -0.572622   -1.195528
C      -0.741294    0.021389   -2.598611
C       0.474176    0.922970   -2.800156
C       1.342144   -0.139837   -2.044809
C       0.152342   -1.145108   -2.209689
H      -0.301334    1.831495    1.294885
H      -0.612530    2.147479   -0.417114
H       1.880598    2.342966   -0.711085
H       2.114400    1.671883    0.906020
H       2.160978   -0.573798   -0.074013
H      -0.166149   -0.581723    0.866390
H      -1.716589   -1.124478   -0.994334
H      -1.623965    0.006663   -3.228649
H       0.751906    0.956962   -3.857584
H       0.447995    1.948013   -2.419930
H       2.290196   -0.385429   -2.524242
H       0.178610   -2.166039   -2.566887
