19

O      -0.063563    1.340938    0.045774
C       0.062158   -0.033163    0.059784
C       0.782249   -0.939174    1.080994
C       0.107341   -1.904932    0.085524
C      -1.164107   -0.992499   -0.069535
C      -1.061293   -1.020742   -1.592618
C      -1.784873   -1.815087   -2.629491
C      -1.803149   -0.290347   -2.658136
C       0.400788   -0.993275   -1.156096
H       0.815206    1.727112   -0.036753
H       1.877695   -0.919845    1.080154
H       0.392723   -0.931924    2.103906
H       0.106986   -2.992151    0.080646
H      -2.043894   -0.998030    0.575868
H      -1.206173   -2.329589   -3.390605
H      -2.700039   -2.327518   -2.348851
H      -2.728639    0.212201   -2.395350
H      -1.236240    0.208611   -3.438031
H       1.312720   -0.993707   -1.756665
