20

C       0.084447    1.536665    0.031309
C      -0.106106    0.036756   -0.178278
C      -1.508563   -0.458200    0.132977
O      -2.413320    0.316339    0.380305
C      -1.720215   -1.965512    0.129739
C      -3.190420   -2.383682   -0.050978
C      -3.349899   -3.898688   -0.072843
O      -3.992276   -1.887067    1.003972
H       1.100956    1.837438   -0.236319
H      -0.619798    2.106599   -0.579192
H      -0.092982    1.811841    1.074410
H       0.108755   -0.247483   -1.218761
H       0.601230   -0.550664    0.422988
H      -1.081227   -2.421737   -0.636333
H      -1.358437   -2.343213    1.097593
H      -3.537690   -1.977727   -1.017195
H      -2.788340   -4.344720   -0.899567
H      -2.994594   -4.332670    0.867497
H      -4.405613   -4.157905   -0.187663
H      -3.856526   -0.928725    1.001413
