14

N       0.009567    1.323237    0.009586
C       1.239040    1.887380    0.000704
C       2.134315    0.818662   -0.014105
C       3.535623    0.631491   -0.028909
C       3.988675   -0.662717   -0.040658
N       3.191898   -1.776866   -0.039124
C       1.889979   -1.624806   -0.025492
C       1.292409   -0.339894   -0.012380
N      -0.015084   -0.014500    0.002296
H      -0.871380    1.813818    0.020992
H       1.373704    2.956606    0.005411
H       4.228671    1.465357   -0.031006
H       5.055384   -0.866628   -0.052275
H       1.270119   -2.518974   -0.024450
