12

O       0.006357    1.278024   -0.051252
C       0.039065   -0.045501   -0.065706
N       0.046809   -0.817310   -1.097085
N       0.085446   -2.154407   -0.618186
C       0.098428   -2.104084    0.664187
O       0.133194   -3.106595    1.547183
N       0.070967   -0.793964    1.133238
C       0.072786   -0.301927    2.422545
O       0.045225    0.886042    2.661519
H       0.009427    1.567787    0.881996
H       0.148091   -3.930502    1.040528
H       0.100475   -1.086552    3.191636
