23

C      -0.064334    1.535633   -0.151057
C       0.057620    0.025361   -0.003406
O       0.716067   -0.447756   -1.177291
C       0.748756   -1.863566   -1.224761
C       1.473356   -2.408970   -0.002377
O       0.887127   -1.907663    1.185953
C       0.803170   -0.468548    1.263241
C       2.206637    0.144501    1.388092
C      -0.017820   -0.218433    2.527554
H       0.920331    2.003527   -0.231151
H      -0.621321    1.767202   -1.062745
H      -0.594711    1.975414    0.697413
H      -0.951107   -0.421383    0.034851
H      -0.277791   -2.264867   -1.258246
H       1.264119   -2.142124   -2.149462
H       1.388771   -3.499659    0.048662
H       2.541977   -2.153072   -0.058725
H       2.746842    0.112323    0.439099
H       2.148607    1.189783    1.703434
H       2.779074   -0.406574    2.139601
H       0.480068   -0.683091    3.383316
H      -0.126934    0.849946    2.730926
H      -1.012340   -0.664398    2.433949
