19

C       0.074603    1.528156   -0.055392
C       0.075612    0.016949    0.013697
C       1.358827   -0.764648   -0.189304
C       0.718380   -0.716655    1.172175
O       1.407868    0.039617    2.139208
C       0.072087   -1.960553    1.715249
C       0.730910   -2.747953    2.783289
N      -0.499645   -1.979368    3.070619
H       0.983234    1.945028    0.388351
H       0.025525    1.871211   -1.094091
H      -0.787903    1.954208    0.470979
H      -0.824827   -0.451827   -0.376439
H       1.328249   -1.695409   -0.745570
H       2.274231   -0.193815   -0.302060
H       0.806824    0.709325    2.482661
H      -0.532607   -2.490921    0.981893
H       0.616036   -3.827530    2.816028
H       1.669542   -2.366735    3.173694
H      -0.222385   -1.124036    3.548650
