17

C       0.578523    0.174190   -0.720274
C      -0.274341    0.216474    0.531729
O      -0.141050    1.064420    1.380273
C      -1.361079   -0.867845    0.681547
C      -0.963270   -2.240861    0.265144
C      -0.438654   -3.306265    0.931607
C      -0.238793   -4.340533   -0.040624
C      -0.654764   -3.826417   -1.225466
O      -1.100022   -2.550729   -1.059508
H       1.253786   -0.687614   -0.672537
H      -0.038932    0.036572   -1.613162
H       1.165164    1.090214   -0.795098
H      -1.676530   -0.859378    1.726749
H      -2.217316   -0.542735    0.075186
H      -0.222807   -3.350623    1.987773
H       0.155303   -5.330452    0.127114
H      -0.709867   -4.213391   -2.229388
