20

C       0.005923    1.553019    0.036978
C       0.015383    0.023514   -0.000906
C       0.710412   -0.513226   -1.264500
C       0.943354   -1.998232   -1.215155
C       0.895869   -2.719943   -0.086842
C       0.659492   -2.086226    1.207386
C       0.679970   -0.576868    1.250100
N       0.456957   -2.693611    2.321666
O       0.474967   -4.091073    2.181433
H       1.026340    1.951357    0.086360
H      -0.470639    1.969032   -0.857190
H      -0.539172    1.924364    0.910865
H      -1.024649   -0.330346   -0.023817
H       0.121379   -0.260722   -2.155653
H       1.676203   -0.000413   -1.402507
H       1.154764   -2.496704   -2.158405
H       1.038228   -3.792970   -0.100610
H       1.725280   -0.235200    1.291143
H       0.195008   -0.232526    2.167454
H       0.330454   -4.382878    3.087074
