23

C       0.029319    1.452853   -0.231716
C       0.043497   -0.049463    0.094758
C       0.904579   -0.351782    1.329902
C      -1.358818   -0.566690    0.256032
C      -2.380543   -0.302728    1.381475
C      -3.021680   -1.708371    1.071022
C      -4.489857   -1.764125    0.674571
C      -1.979331   -1.867836   -0.050475
O      -2.139724   -0.751436   -0.939614
H       1.044012    1.821160   -0.413124
H      -0.572879    1.652052   -1.122547
H      -0.391278    2.031228    0.598919
H       0.467915   -0.582826   -0.765505
H       0.920287   -1.422946    1.554877
H       1.936329   -0.025121    1.166875
H       0.529150    0.173823    2.214811
H      -1.944349   -0.249892    2.381601
H      -3.022445    0.566654    1.216688
H      -2.809950   -2.404459    1.889482
H      -4.674273   -1.109002   -0.181467
H      -4.788561   -2.781423    0.397770
H      -5.133878   -1.440631    1.499242
H      -1.561534   -2.774974   -0.475826
