16

C      -0.022018    1.470178    0.057358
C      -0.001036   -0.021182   -0.023903
C      -0.038117   -0.777219   -1.143517
C       0.001533   -2.184919   -0.777498
C       0.006109   -3.484135   -1.162530
O       0.067808   -4.280670   -0.065381
N       0.106097   -3.488250    1.095046
C       0.065937   -2.268306    0.645269
C       0.069235   -0.887883    1.237142
H       0.874769    1.855395    0.559485
H      -0.074991    1.922811   -0.936196
H      -0.881356    1.826335    0.639945
H      -0.089312   -0.389074   -2.152553
H      -0.026954   -4.005609   -2.105557
H       0.972084   -0.681888    1.825040
H      -0.784482   -0.711052    1.902796
