14

O      -0.009402    0.008597    0.521880
C      -0.015987    1.169706    0.226624
C      -1.225983    2.049458   -0.057321
C      -0.674464    3.502332   -0.067642
N       0.775608    3.311244   -0.153354
C       1.246461    2.046269    0.056383
O       2.396565    1.683091    0.098745
C      -1.188757    4.327806   -1.156577
C      -1.613832    5.017760   -2.043099
H      -1.621300    1.785024   -1.042911
H      -2.020902    1.898743    0.674318
H      -0.928068    3.991379    0.883280
H       1.403503    4.090764   -0.278082
H      -1.990111    5.624089   -2.830385
