16

N       0.069294    1.284563    0.508480
C      -0.057199    0.091321    0.060689
N      -1.268459   -0.505154   -0.135523
C      -2.515370    0.225115    0.021310
C      -3.624295   -0.742499    0.344878
C      -4.945208   -0.638221   -0.282583
O      -4.002135   -1.614985   -0.728394
C       1.076737   -0.765300   -0.258375
N       2.004320   -1.408767   -0.508268
H       1.047774    1.527177    0.637529
H      -1.300552   -1.347342   -0.688661
H      -2.378810    0.949909    0.827937
H      -2.761864    0.787906   -0.889608
H      -3.543231   -1.241012    1.311073
H      -5.817636   -1.032988    0.234675
H      -5.145263    0.171815   -0.982311
