19

O      -0.079813    1.367757    0.020475
C       0.019065   -0.029500    0.050983
C       0.788025   -0.680635   -1.133806
O       1.074953   -2.012491   -0.683132
C       0.495528   -2.114180    0.643311
C       0.772184   -0.720073    1.215557
C      -1.019528   -2.150984    0.449343
C      -1.913373   -1.298355    1.315540
C      -1.345180   -0.716643    0.049775
H       0.810314    1.733457   -0.031459
H       0.193472   -0.703949   -2.054680
H       1.728861   -0.147354   -1.339041
H       0.951312   -2.974112    1.134076
H       1.841689   -0.494195    1.217371
H       0.359142   -0.515145    2.202081
H      -1.435944   -2.998663   -0.081689
H      -2.968849   -1.545928    1.272653
H      -1.594719   -0.955117    2.292579
H      -2.008036   -0.489640   -0.777638
