21

C      -0.009570    1.505525    0.088341
C       0.242380    0.009892    0.004298
O       0.450014   -0.484199    1.315003
C       0.668729   -1.860600    1.368832
C       2.068220   -2.454740    0.937653
C       2.172173   -3.053020    2.352625
C       2.853728   -4.308505    2.788042
O       2.164408   -1.929077    3.241880
C       0.903273   -2.419121    2.770575
H       0.846807    2.011952    0.542152
H      -0.172131    1.922027   -0.910298
H      -0.892216    1.712217    0.700203
H      -0.616377   -0.503864   -0.461151
H       1.121952   -0.197854   -0.626408
H      -0.142361   -2.409586    0.863390
H       1.995147   -3.187777    0.130829
H       2.842806   -1.718341    0.712610
H       3.941606   -4.209462    2.699535
H       2.616179   -4.530068    3.831876
H       2.543228   -5.155424    2.167560
H       0.170639   -2.700369    3.519136
