21

C       0.019737    1.583159   -0.004597
C       0.076817    0.055689   -0.011054
C       0.771888   -0.521653   -1.253071
C       0.787158   -2.052949   -1.234708
C       1.269390   -2.615261    0.080700
C       1.758321   -4.034271    0.067677
C       1.245005   -1.874435    1.201603
C       0.727436   -0.494571    1.263635
O       0.784685    0.155687    2.290905
H       1.026345    2.010264   -0.068251
H      -0.560992    1.953042   -0.855320
H      -0.432099    1.946712    0.919907
H      -0.954474   -0.335266    0.004338
H       0.278752   -0.159381   -2.161697
H       1.805121   -0.151564   -1.286843
H      -0.223869   -2.444134   -1.429752
H       1.410368   -2.442563   -2.049147
H       2.626312   -4.139878   -0.595487
H       2.039112   -4.380014    1.065063
H       0.985611   -4.706166   -0.327659
H       1.605587   -2.272030    2.146487
