16

C       0.079905    1.664647    0.023073
C       0.081286    0.142152    0.005781
N       0.707058   -0.447885   -1.207404
C       2.149457   -0.297316   -1.235780
C       1.552744   -1.602815   -0.794322
C       1.502045   -1.770108    0.681516
O       1.897582   -2.682590    1.356946
C       0.735725   -0.518824    1.217481
O       0.648205   -0.200321    2.371463
H       1.096176    2.067972   -0.009830
H      -0.475123    2.057232   -0.832321
H      -0.389819    2.014254    0.945792
H      -0.959719   -0.215063    0.007748
H       2.601837   -0.254276   -2.221547
H       2.635653    0.325119   -0.485859
H       1.584273   -2.472601   -1.440492
