23

C      -3.548227    0.807138    0.840154
O      -2.639742   -0.130276    1.365173
C      -1.570461   -0.490254    0.483129
C      -0.480972    0.583371    0.472348
C      -1.131014   -1.883029    0.920049
C      -2.150088   -2.948631    0.584186
O      -2.226419   -3.071015   -0.834597
C       0.318976   -2.304243    0.896240
C      -0.373305   -2.062456    2.212370
H      -4.354589    0.918173    1.570400
H      -3.095798    1.796782    0.676060
H      -3.980353    0.468030   -0.114655
H      -1.974761   -0.586934   -0.535956
H      -0.002445    0.685607    1.451037
H       0.284954    0.356380   -0.274095
H      -0.910491    1.554312    0.210275
H      -1.849707   -3.903774    1.042527
H      -3.121935   -2.659589    1.007697
H      -3.009701   -3.586581   -1.046759
H       0.530818   -3.326405    0.601804
H       1.069361   -1.590878    0.578218
H      -0.111438   -1.173540    2.774093
H      -0.623296   -2.916031    2.833752
