15

O       0.017766    1.328808   -0.317088
C       0.014997   -0.051499    0.009874
C      -1.428754   -0.497656    0.121909
C      -2.258340   -0.486345   -1.200516
C      -2.625969   -1.952721   -0.927482
O      -3.400060   -2.722163   -1.416531
C      -1.663977   -2.033018    0.273170
H       0.930279    1.618557   -0.407814
H       0.522166   -0.648275   -0.767961
H       0.538595   -0.242044    0.960864
H      -1.922532    0.074047    0.911407
H      -3.099115    0.208065   -1.269309
H      -1.644232   -0.368437   -2.100136
H      -0.779693   -2.642219    0.050973
H      -2.102432   -2.392949    1.207334
