16

C       0.043306    1.501220   -0.091077
N       0.004556    0.042794    0.052851
C      -1.149153   -0.589862    0.817424
C      -0.215787   -1.811382    1.012244
C       0.705220   -0.580994    1.268777
C       2.112223   -0.517356    1.485125
C       3.293556   -0.444275    1.698594
C      -0.503114    0.022561    2.081948
O      -0.729101    0.752815    2.990473
H       1.052998    1.782925   -0.402106
H      -0.650480    1.782422   -0.888544
H      -0.214122    2.065622    0.817153
H      -2.170583   -0.557980    0.446552
H      -0.409245   -2.474322    1.855648
H       0.019110   -2.330581    0.082786
H       4.337191   -0.383014    1.886450
