13

O      -0.237691    0.311423    0.668855
C       0.111642    1.137931   -0.136631
C       1.302347    2.026386    0.015874
C       1.497244    2.892628    1.211678
C       0.975761    2.280889    2.510010
C       1.892925    1.095921    2.161947
O       2.278396    0.116731    2.706020
N       2.432429    1.725339    0.935981
H      -0.461854    1.313647   -1.071844
H       1.659080    2.444560   -0.922801
H       1.853186    3.910047    1.101114
H       1.325067    2.809912    3.400294
H      -0.090097    2.071238    2.599277
