19

C       0.167140    1.550101   -0.155706
C      -0.049966    0.066592    0.065917
O       0.733656   -0.754348   -0.840360
C       1.451203   -1.373553    0.244431
C       0.643481   -0.584277    1.284948
O       1.399632    0.260995    2.187831
C       0.831236   -0.416518    3.315651
C      -0.646653   -0.208927    3.365796
C      -0.060856   -1.267203    2.446805
H       1.212258    1.821524    0.010822
H      -0.108359    1.812887   -1.181672
H      -0.452999    2.136693    0.529772
H      -1.116133   -0.188928   -0.010565
H       1.321546   -2.463300    0.262797
H       2.520522   -1.130447    0.239313
H       1.480091   -0.639895    4.153455
H      -1.148660   -0.607066    4.242443
H      -1.074262    0.705415    2.964331
H      -0.319924   -2.315797    2.500737
