21

O      -0.029362    1.465544   -0.005079
C       0.034795    0.044580   -0.016654
C       0.691211   -0.552140    1.273734
C       0.052024   -1.951871    1.493569
C      -1.324459   -1.810270    0.869905
C      -2.158669   -0.606801    1.203389
C      -1.330274   -0.592440   -0.052555
C      -2.008604   -1.412783   -1.165405
C      -2.006619   -2.664205   -0.216835
H       0.872233    1.803234    0.002667
H       0.596381   -0.296747   -0.902286
H       1.782278   -0.598162    1.197977
H       0.459851    0.120627    2.106274
H       0.617538   -2.718284    0.949852
H       0.055845   -2.243031    2.550274
H      -3.239711   -0.668396    1.114205
H      -1.820668    0.024633    2.016431
H      -2.982588   -1.049593   -1.508638
H      -1.367347   -1.552818   -2.039426
H      -1.366064   -3.467809   -0.589246
H      -2.979755   -3.093134    0.043479
