23

C       0.228128    1.622378   -0.155787
C       0.113817    0.112099   -0.009616
C       1.011090   -0.819032   -0.882434
C       1.276005   -1.725202    0.354540
C       0.640597   -0.608250    1.260601
C       2.074059   -0.228080    1.735618
C       2.639632   -1.517038    1.048795
C       2.965830   -2.627104    2.043699
O       3.700062   -1.339081    0.125999
H       1.261860    1.966128   -0.044224
H      -0.115781    1.943393   -1.145574
H      -0.380322    2.143771    0.592220
H      -0.934731   -0.178325   -0.145957
H       0.510109   -1.303835   -1.723115
H       1.922026   -0.343704   -1.253378
H       0.896233   -2.747051    0.296571
H      -0.074764   -0.819293    2.057139
H       2.466996    0.688610    1.289690
H       2.214611   -0.175488    2.818664
H       2.124165   -2.819662    2.716765
H       3.204537   -3.553732    1.512134
H       3.827530   -2.351413    2.665507
H       4.512988   -1.206152    0.625156
