21

C      -0.316609    1.500952    0.127456
C      -0.077636    0.000052   -0.013625
O       0.469724   -0.311857   -1.293612
C       0.819914   -0.556496    1.121817
O       0.428022   -0.023542    2.374320
C       0.829646   -2.093545    1.201085
C       1.049432   -2.905927   -0.053857
C       1.153423   -2.700782    2.500446
O      -0.216325   -2.584742    2.070086
H       0.635935    2.046750    0.098834
H      -0.940050    1.854053   -0.698501
H      -0.800077    1.737668    1.076019
H      -1.040716   -0.525699    0.016569
H       1.227264    0.267113   -1.433992
H       1.846476   -0.207325    0.935542
H      -0.282407   -0.606477    2.682969
H       2.016727   -2.661353   -0.503725
H       1.036989   -3.971130    0.191418
H       0.285069   -2.704199   -0.804971
H       1.536724   -3.719230    2.526300
H       1.423559   -2.069228    3.342105
