18

O       0.106529    1.205947   -0.533746
C      -0.063708   -0.027982    0.149375
C      -1.495181   -0.481634    0.166833
C      -2.663219   -0.136090    1.071519
N      -3.420338   -1.319810    0.485944
C      -3.653777   -0.847038   -0.940372
C      -2.155185   -0.946078   -1.148396
O      -1.399258   -0.856800   -2.302396
C      -2.056105   -1.880792    0.027188
H      -0.150087    1.044773   -1.449089
H       0.562233   -0.817719   -0.293248
H       0.295158    0.136342    1.171090
H      -2.455135   -0.325878    2.128391
H      -3.171152    0.828248    0.962240
H      -4.214886   -1.611808   -1.486606
H      -4.159949    0.120547   -1.028804
H      -1.625581   -1.587797   -2.887965
H      -1.681153   -2.878115    0.209217
