17

C      -0.270843    1.378581   -0.055163
C       0.111992   -0.089909    0.109579
C       0.886529   -0.676495   -1.081135
O       1.721635   -1.726487   -0.568960
C       1.662690   -1.746264    0.849663
C       1.075927   -0.387249    1.270427
C       0.823164   -2.873404    1.316166
N       0.164232   -3.747469    1.686700
H       0.618935    2.004569   -0.187049
H      -0.914629    1.523239   -0.928768
H      -0.814842    1.745987    0.820231
H      -0.796989   -0.684888    0.260573
H       0.231032   -1.092834   -1.852611
H       1.529053    0.083543   -1.547730
H       2.675472   -1.904744    1.235406
H       1.883157    0.352569    1.299836
H       0.593407   -0.414690    2.249030
