19

C      -0.166202    1.442562   -0.192105
C       1.237844    1.035765    0.144521
C       0.150302   -0.021264    0.063856
C      -0.324823   -0.710990    1.275774
C      -0.665621   -2.003134    1.388952
C      -1.110461   -2.379517    2.786832
C      -0.914419   -1.084182    3.564483
O       0.436808   -0.621255    3.613390
C      -0.451103   -0.054302    2.621284
H      -0.739390    1.979432    0.555706
H      -0.394039    1.730930   -1.212172
H       1.985466    1.047732   -0.640654
H       1.621602    1.281947    1.128470
H       0.173788   -0.651720   -0.819831
H      -0.595336   -2.730602    0.587289
H      -2.160808   -2.699085    2.815561
H      -0.517473   -3.199381    3.210822
H      -1.514643   -0.861654    4.442759
H      -0.649900    1.006718    2.741372
