20

C      -0.063409    1.422723   -0.080882
O       0.043976    0.019197   -0.006186
C       0.685418   -0.550772   -1.124991
C       0.669451   -2.065942   -0.938531
C      -0.771891   -2.556421   -0.831139
O      -1.089304   -3.638302   -0.406421
C       1.437676   -2.767920   -2.056963
C       1.311958   -4.218911   -2.321972
N       0.793928   -3.239768   -3.298071
H       0.925937    1.902929   -0.131145
H      -0.645122    1.740530   -0.960017
H      -0.574932    1.759167    0.823663
H       0.160575   -0.275497   -2.057243
H       1.720081   -0.183139   -1.217353
H       1.156641   -2.303504    0.015658
H      -1.541454   -1.840756   -1.196811
H       2.407263   -2.308028   -2.243275
H       2.180011   -4.779411   -2.657008
H       0.600375   -4.777280   -1.721978
H      -0.219588   -3.190021   -3.217785
