18

N      -0.102497    1.249660   -0.619603
C      -0.001747    0.117501   -0.059967
C      -1.270922   -0.694835    0.174982
O      -1.512912   -1.200353    1.474111
C      -0.484589   -1.951220    2.088682
C       0.709245   -1.064271    2.546605
C       1.411942   -1.418861    1.212496
C       0.496339   -2.667428    1.116576
O       1.223133   -0.434801    0.191636
H       0.829105    1.639587   -0.783831
H      -2.102638   -0.028094   -0.048795
H      -1.282183   -1.509083   -0.565966
H      -0.978442   -2.560339    2.848383
H       0.494109   -0.009543    2.731935
H       1.235775   -1.489096    3.405187
H       2.489585   -1.583516    1.222083
H       0.967843   -3.519563    1.613009
H       0.147967   -2.986061    0.133381
