17

O       0.009870    0.038817   -0.293350
C      -0.003609    1.197747    0.024592
C      -1.265433    2.051936    0.233275
C      -0.803794    3.283082    0.980667
C      -0.059090    3.069889    2.266062
C       0.736489    3.312480    0.991718
C       1.239530    2.063196    0.279825
C       1.459112    4.538749    0.837559
C       2.078573    5.560607    0.696153
H      -1.666829    2.310202   -0.755061
H      -2.032235    1.465187    0.748145
H      -1.339849    4.214616    0.848630
H      -0.067521    3.872730    2.993200
H      -0.029562    2.072288    2.696956
H       1.989710    1.496460    0.838323
H       1.683672    2.321446   -0.689037
H       2.623038    6.464077    0.575341
