24

C       0.041373    1.574004    0.163415
C       0.029447    0.055115   -0.037202
C       0.844074   -0.438280   -1.246334
C       2.343374   -0.137427   -1.112783
C       0.607354   -1.940926   -1.472815
C       1.127538   -2.423434   -2.826049
O       1.063456   -1.736055   -3.831701
N       1.641595   -3.688764   -2.826711
C       2.124434   -4.337505   -4.029496
H       1.041795    1.950475    0.396870
H      -0.306913    2.092271   -0.737034
H      -0.616863    1.863369    0.988752
H       0.397742   -0.437382    0.874300
H      -1.010419   -0.275509   -0.159103
H       0.475765    0.070019   -2.145722
H       2.890481   -0.490852   -1.991441
H       2.533246    0.935353   -1.021109
H       2.765649   -0.627400   -0.226047
H       1.046332   -2.526871   -0.654397
H      -0.471322   -2.146920   -1.460181
H       1.664963   -4.197329   -1.959021
H       2.029417   -3.617642   -4.843201
H       3.175732   -4.629925   -3.930247
H       1.534858   -5.229603   -4.270735
