17

O      -0.008335    1.493346   -0.056599
C       0.035741    0.084269   -0.030466
C       0.653314   -0.510314   -1.317273
C      -0.077909   -0.136241   -2.519103
C      -0.695610    0.162928   -3.505177
C       0.825131   -0.372289    1.212912
O       2.115760    0.184948    1.170778
C       0.119703    0.072099    2.481197
O       0.690143    0.725144    3.319911
H       0.903666    1.787247    0.073634
H      -1.002615   -0.257441    0.053870
H       1.696277   -0.177408   -1.384271
H       0.682475   -1.604285   -1.226201
H      -1.234728    0.434972   -4.378362
H       0.866720   -1.476581    1.234159
H       2.243387    0.603949    2.038633
H      -0.935271   -0.245003    2.599362
