24

C       0.087649    1.627758    0.138178
C       0.017092    0.096321    0.173083
C      -1.376590   -0.521172   -0.054962
C      -2.355879   -0.090035    1.053718
C      -1.956975   -0.197811   -1.454176
C      -2.985997   -1.313283   -1.750242
C      -2.552046   -2.530583   -0.881446
C      -1.293943   -2.066892   -0.112840
H       1.119578    1.968117    0.270983
H      -0.269101    2.024572   -0.817942
H      -0.510648    2.085005    0.932147
H       0.696614   -0.304510   -0.590875
H       0.405647   -0.258064    1.137727
H      -2.533600    0.989673    1.039691
H      -3.328792   -0.579479    0.945766
H      -1.964262   -0.352622    2.043058
H      -2.396102    0.802736   -1.513484
H      -1.144740   -0.234001   -2.191076
H      -3.995800   -0.989934   -1.479950
H      -3.016908   -1.556511   -2.815936
H      -3.350771   -2.812066   -0.188583
H      -2.345848   -3.416988   -1.487727
H      -0.391562   -2.353051   -0.667145
H      -1.212533   -2.518985    0.881238
