23

C       0.377698    1.711436   -0.639009
C       0.433105    0.217053   -0.387219
C       1.657625   -0.651549   -0.494654
C       2.890132    0.032445    0.112698
C       2.162497    0.072498    1.494176
C       2.092432    1.351283    2.310536
O       3.399170    1.596946    2.819460
C       0.899587   -0.526312    0.845296
C       0.017516   -1.521446    1.550348
H       1.315938    2.218290   -0.404777
H       0.162719    1.905683   -1.696102
H      -0.414535    2.187301   -0.049713
H      -0.437154   -0.290894   -0.803210
H       1.694866   -1.501042   -1.168068
H       3.778483   -0.601171    0.125882
H       3.170817    0.997862   -0.320627
H       2.610906   -0.687288    2.144508
H       1.744514    2.196238    1.701287
H       1.365184    1.219397    3.129778
H       3.383578    2.430388    3.298662
H      -0.613194   -1.037291    2.306766
H      -0.650858   -2.028718    0.846483
H       0.610836   -2.289325    2.061035
