17

N       0.071996   -1.191181   -0.078332
C       0.016160   -0.037153   -0.064149
C      -0.037412    1.422479   -0.044545
C       1.361081    2.047614    0.091982
C       1.299606    3.542149    0.111053
N       0.250322    4.251861    0.027677
C       0.688351    5.654778    0.090418
C       2.232054    5.577118    0.229164
O       2.506305    4.156234    0.230507
H      -0.518617    1.779614   -0.959710
H      -0.675564    1.750453    0.781178
H       1.851530    1.701968    1.008487
H       2.008664    1.730656   -0.732742
H       0.373891    6.184417   -0.814649
H       0.214658    6.155651    0.940880
H       2.771583    6.028454   -0.607727
H       2.610854    5.999101    1.163846
