25

C      -0.021588    1.522293   -0.109894
C      -0.003685   -0.018009   -0.021103
C       0.819114   -0.405045    1.225634
C      -1.449821   -0.528391    0.123395
C       0.661085   -0.627893   -1.290956
C       0.832958   -2.145004   -1.245844
C       0.150333   -0.121388   -2.672039
C       1.568402    0.451478   -2.836810
O       1.965947   -0.008275   -1.531081
H       0.987718    1.913421   -0.257204
H      -0.656525    1.886682   -0.923243
H      -0.418599    1.943014    0.819561
H       0.443821    0.126851    2.106062
H       0.762806   -1.475180    1.443498
H       1.871176   -0.136790    1.090753
H      -2.047014   -0.307427   -0.768373
H      -1.492314   -1.607124    0.299538
H      -1.937610   -0.039632    0.973416
H      -0.128904   -2.658065   -1.152096
H       1.308273   -2.485823   -2.170122
H       1.472399   -2.447875   -0.413749
H      -0.123099   -0.913280   -3.371519
H      -0.650040    0.617010   -2.645344
H       2.174312   -0.001746   -3.631366
H       1.635115    1.542836   -2.923498
