18

C       0.160411    1.576798   -0.282161
C       0.082219    0.093399    0.014610
C       1.227590   -0.854733   -0.205789
O       2.510944   -0.273460   -0.361823
C       2.927621    0.319326    0.798937
O       3.930957    0.961158    0.859824
C       1.911706    0.029615    1.927545
N       1.727066    1.199140    2.774578
C       0.739480   -0.612838    1.196915
H       1.164486    1.985971   -0.147639
H      -0.122579    1.767621   -1.322428
H      -0.526664    2.141677    0.356559
H      -0.880633   -0.346787   -0.235426
H       1.132624   -1.783699   -0.753607
H       2.380417   -0.743673    2.551753
H       1.302266    1.957440    2.251414
H       1.093165    0.974461    3.534350
H       0.165097   -1.365872    1.723700
