19

O      -0.140917    1.295180    0.925844
C       0.012602    0.228703   -0.009860
C      -1.352767   -0.459620   -0.103713
C      -2.000504   -0.889449   -1.464358
C      -1.051304   -2.109643   -1.479081
O       0.288095   -1.834645   -1.806145
C      -1.537058   -2.010725    0.003373
C      -2.951669   -1.809481   -0.628249
O      -4.024641   -1.298010    0.102182
H       0.698278    1.761177    0.984240
H       0.325791    0.606541   -0.991474
H       0.784430   -0.477181    0.323765
H      -2.011891    0.123277    0.547988
H      -2.260569   -0.250367   -2.309486
H      -1.416083   -2.985444   -2.033449
H       0.810814   -2.617432   -1.606303
H      -1.266589   -2.658058    0.840107
H      -3.348309   -2.673906   -1.166609
H      -3.735113   -0.531449    0.607471
