19

C      -0.266589    1.537842    0.336494
C      -0.166371    0.035728    0.312609
O       0.983864   -0.534965   -0.334201
C       0.821727   -0.751267    1.067345
C       1.857116   -0.144382    2.023991
C       1.742676   -0.998755    3.268077
O       0.394103   -1.132676    3.740160
C       0.958164   -2.206206    2.972286
C       0.536925   -2.190874    1.520368
H       0.700683    1.999711    0.545716
H      -0.614701    1.909230   -0.632979
H      -0.984440    1.861000    1.098208
H      -1.099045   -0.475742    0.063126
H       2.861375   -0.237526    1.592925
H       1.680341    0.914658    2.228801
H       2.507114   -0.964309    4.039781
H       1.092731   -3.142773    3.506834
H      -0.508878   -2.476538    1.374899
H       1.157741   -2.887645    0.943582
