20

C       0.114958    1.319636   -0.295178
N       0.026525   -0.091902    0.051876
C      -1.277758   -0.482720    0.706945
C      -1.523387   -1.956948    0.382871
C      -0.180287   -2.702949    0.606034
C       0.567289   -1.939638    1.695269
O      -0.386913   -1.634616    2.765352
C      -0.615951   -0.365108    2.145559
C       0.684804   -0.408462    1.338945
H       1.138598    1.554911   -0.605701
H      -0.547093    1.525379   -1.142437
H      -0.157161    2.012479    0.522703
H      -2.119237    0.174474    0.474594
H      -2.294815   -2.353347    1.049375
H      -1.871685   -2.070150   -0.647454
H      -0.346866   -3.739513    0.913144
H       0.416568   -2.709459   -0.310238
H       1.455895   -2.442705    2.083377
H      -0.967613    0.403131    2.836177
H       1.621431    0.099769    1.573718
