23

C      -0.129303    1.601488    0.001493
C       0.043896    0.083087   -0.024377
C       0.906649   -0.456131   -1.209855
C       1.987303   -1.337881   -0.496719
C       2.873765   -0.367901    0.266481
C       2.157197    0.113355    1.288322
C       0.781272   -0.528471    1.222797
C       1.172223   -1.937265    0.686638
C       0.053281   -2.920059    0.349972
H       0.838528    2.111469    0.033716
H      -0.657600    1.948461   -0.893368
H      -0.710873    1.922600    0.873368
H      -0.954121   -0.365756   -0.071787
H       0.307311   -1.048098   -1.908277
H       1.370175    0.350908   -1.784120
H       2.498841   -2.044185   -1.153171
H       3.866731   -0.065095   -0.043282
H       2.448105    0.887603    1.987408
H       0.190669   -0.496164    2.140970
H       1.856487   -2.416014    1.395056
H      -0.650788   -2.540194   -0.394342
H       0.473477   -3.852487   -0.043110
H      -0.520135   -3.173999    1.248618
