18

C      -0.030686    1.391238    0.028682
O       0.004125   -0.016687    0.006338
C       0.622444   -0.529581   -1.151244
C       0.567902   -2.058832   -1.071378
C      -0.870328   -2.589070   -1.065607
C       1.371353   -2.669948   -2.208432
F       2.657192   -2.276855   -2.177592
F       1.366198   -4.010506   -2.151558
F       0.880995   -2.319567   -3.412056
H       0.981528    1.824274    0.005744
H      -0.597514    1.798556   -0.823126
H      -0.522713    1.690307    0.957032
H       0.102949   -0.180827   -2.058981
H       1.667328   -0.189216   -1.216654
H       1.075314   -2.362329   -0.148707
H      -1.424785   -2.118374   -0.252715
H      -1.372288   -2.353614   -2.009238
H      -0.888974   -3.672456   -0.928855
