21

C      -0.102229    1.513039   -0.229688
C       0.152023    0.047137   -0.088592
O      -0.836786   -0.738381    0.602002
C       0.523829   -0.798081    1.059534
C       1.248892   -1.804667    0.162289
C       0.841039   -0.933086   -1.070709
C       0.028250   -1.432439   -2.289000
C       0.854796   -0.474023   -3.191245
C       1.901862   -0.363031   -2.048698
H       0.809108    2.048779   -0.512335
H      -0.859625    1.706553   -0.998228
H      -0.469241    1.923909    0.714707
H       0.704680   -0.543093    2.098285
H       2.332769   -1.819098    0.312107
H       0.859875   -2.826087    0.197492
H       0.239455   -2.483379   -2.509785
H      -1.055316   -1.299694   -2.243532
H       1.202613   -0.859323   -4.152274
H       0.337441    0.473240   -3.367068
H       2.320777    0.622924   -1.827640
H       2.730753   -1.064664   -2.185635
