19

O       0.032000    1.453141   -0.056047
C       0.025218    0.025334   -0.011916
C       0.822583   -0.493505    1.193238
C       0.088850   -0.211424    2.515333
C      -1.214686   -0.998798    2.557164
O      -1.536952   -1.669846    3.513755
C      -2.044248   -0.950790    1.319094
C      -2.448607    0.395449    0.734962
C      -1.434412   -0.432892    0.016485
H       0.950135    1.739842   -0.103504
H       0.482087   -0.371166   -0.930209
H       0.979314   -1.573348    1.078763
H       1.818739   -0.033025    1.200300
H       0.679993   -0.495697    3.388191
H      -0.119180    0.863237    2.583098
H      -2.778409   -1.746402    1.262110
H      -3.448788    0.463603    0.323436
H      -2.099702    1.296214    1.223458
H      -1.772627   -0.938176   -0.881434
