18

C      -2.361160    1.473650   -0.029706
N      -2.347096    0.027212    0.009504
C      -1.178968   -0.653087   -0.023411
N      -0.043218   -0.066202   -0.091599
N      -1.315410   -2.076112    0.023721
C      -2.438561   -2.843210    0.097102
O      -3.584623   -2.414075    0.137940
C      -2.202661   -4.356041    0.129050
O      -3.417224   -5.035507    0.203705
H      -3.399049    1.810169    0.006071
H      -1.815770    1.899823    0.819201
H      -1.892527    1.850738   -0.945005
H      -3.200681   -0.506829    0.065652
H       0.732534   -0.722597   -0.108023
H      -0.434539   -2.567486   -0.003060
H      -1.641173   -4.642167   -0.775357
H      -1.560310   -4.592048    0.993245
H      -4.096086   -4.341124    0.215806
