19

O      -0.051052    1.455190   -0.118808
C       0.065920    0.048991   -0.071491
C      -1.315021   -0.614155    0.014494
C      -1.412083   -2.150315    0.157239
C      -2.909439   -2.322709    0.547600
C      -2.456629   -1.612657    1.868185
C      -1.104362   -2.386591    1.667051
C      -2.034396   -0.259311    1.331303
O      -2.144914    0.835619    1.830882
H      -0.632722    1.710120    0.611622
H       0.573509   -0.260607   -0.992122
H       0.698359   -0.276839    0.770841
H      -1.908323   -0.251984   -0.834240
H      -0.951588   -2.756043   -0.622610
H      -3.667210   -1.832208   -0.069787
H      -3.182723   -3.364376    0.728514
H      -3.025119   -1.631856    2.795206
H      -1.203324   -3.435115    1.955656
H      -0.194814   -1.963471    2.099600
