16

O      -0.975949    1.386543    0.312869
C       0.130297    0.939444    0.145334
C       1.361321    1.799893   -0.054453
O       2.431627    1.073964   -0.679747
C       2.548638    2.058116   -1.734486
C       1.361706    2.876141   -1.175851
C       0.109938    2.981864   -2.057025
C       0.326734    3.901935   -3.171897
N       0.526981    4.629885   -4.046630
H       0.339887   -0.152966    0.127316
H       1.652273    2.196906    0.930551
H       3.518457    2.565525   -1.711291
H       2.397382    1.614690   -2.725588
H       1.638845    3.867903   -0.817085
H      -0.165425    2.001792   -2.462654
H      -0.744007    3.320284   -1.462067
