15

O       0.148161    1.351359    0.015659
C       0.028665   -0.038956   -0.000434
C       0.226486   -0.622075    1.444102
O       0.986304    0.162341    2.321348
C      -1.296995   -0.514756    1.581755
O      -1.976585   -0.232888    2.522658
C      -1.483971   -0.498233    0.044249
C      -2.514927    0.314435   -0.547649
C      -3.384479    0.989248   -1.028592
H       0.729959    1.562093    0.761273
H       0.621314   -0.498166   -0.798212
H       0.581397   -1.659830    1.421288
H       0.393227    0.457684    3.025388
H      -1.539180   -1.536447   -0.309760
H      -4.146222    1.595490   -1.452437
