22

C       0.095087    1.562295    0.093723
C      -0.075797    0.042926    0.001313
C       0.620106   -0.583391   -1.199958
N       2.110496   -0.566104   -1.186904
C       2.793811    0.406824   -2.014732
C       2.187629   -1.980203   -1.623598
C       0.702331   -2.110791   -1.301859
C      -0.031529   -3.155398   -0.591797
O      -0.209000   -2.927716   -2.001609
H       1.147841    1.830405    0.224342
H      -0.272212    2.061872   -0.809813
H      -0.457679    1.968455    0.946334
H       0.312451   -0.428333    0.911663
H      -1.144160   -0.204827   -0.058635
H       0.208974   -0.169811   -2.138225
H       2.596720    1.418865   -1.649567
H       3.874965    0.238283   -1.964803
H       2.491187    0.361335   -3.078494
H       2.374840   -2.101839   -2.702656
H       2.899818   -2.597092   -1.064771
H       0.470474   -4.086089   -0.329878
H      -0.886355   -2.897095    0.031313
