16

C       0.249614    1.495637    0.049838
C       0.089682    0.052082   -0.038590
C      -0.052408   -1.139653   -0.109729
C      -0.206248   -2.581106   -0.199186
C      -1.628441   -3.070856    0.028863
O      -2.596093   -2.409433    0.265759
O      -1.632588   -4.442266   -0.083052
C      -2.826815   -5.099902    0.088194
N      -2.826423   -6.352731   -0.014837
H       0.953930    1.770470    0.842496
H       0.626560    1.912862   -0.890235
H      -0.706352    1.982626    0.270464
H       0.111160   -2.961838   -1.178936
H       0.432818   -3.101984    0.526000
H      -3.655418   -4.424025    0.300053
H      -3.768972   -6.710766    0.133552
