23

C      -0.056834    1.510710   -0.069884
C      -0.017078   -0.021978   -0.014394
C       0.711182   -0.549878    1.197387
C       2.243148   -0.325343    1.392517
C       2.219789   -1.604064    2.222312
C       0.943750   -2.079330    1.564189
C       0.895054   -1.634295    3.007723
C       0.718700   -2.467698    4.241913
C       0.147117   -0.353933    2.637825
H       0.953387    1.931944   -0.103160
H      -0.592933    1.859521   -0.957684
H      -0.560760    1.926521    0.809068
H      -1.042171   -0.415958   -0.020249
H       0.464178   -0.409716   -0.922241
H       2.790524   -0.467865    0.454827
H       2.563993    0.610855    1.865649
H       3.059144   -2.209477    2.542561
H       0.679645   -3.009471    1.080132
H       1.278118   -3.406898    4.168465
H       1.075028   -1.940696    5.135337
H      -0.335146   -2.721913    4.404618
H       0.396378    0.578173    3.161159
H      -0.936890   -0.510808    2.668322
