16

C      -0.117234    0.839362   -0.560409
O      -0.422074    0.498208    0.792274
C       0.480000   -0.325083    1.378523
C       1.063905   -1.515802    1.058849
O       0.905286   -2.229557   -0.087390
N       1.881131   -1.955301    2.074501
C       1.799092   -1.036896    3.013307
N       2.515793   -1.022760    4.211745
N       0.968670   -0.022675    2.654388
H      -0.092928   -0.052394   -1.195329
H      -0.912636    1.507941   -0.895907
H       0.850697    1.351856   -0.626530
H       1.483680   -2.996594   -0.004305
H       1.921535   -0.943305    5.030185
H       3.061504   -1.873430    4.280130
H       0.806580    0.840430    3.144121
