16

C      -0.083181    1.421495    0.073570
C       1.334384    0.857616   -0.010068
C       2.043536    0.488091    1.247743
C       1.447692   -0.513019    1.908405
C       0.172120   -0.920940    1.219299
O       0.128931   -2.266478    0.648921
C      -0.159080   -2.078577   -0.665015
N      -0.224329   -0.901795   -1.147232
C       0.114017   -0.050021   -0.038165
H      -0.432633    1.830776    1.017358
H      -0.440408    1.934970   -0.812925
H       1.898936    1.066353   -0.911431
H       2.947800    0.989295    1.576557
H       1.762274   -0.923735    2.860078
H      -0.698191   -0.841443    1.882395
H      -0.318939   -2.993659   -1.223322
