14

N      -0.171776    1.322541    0.046896
C       0.033429   -0.012199   -0.006259
O       1.101779   -0.578912   -0.068647
N      -1.179563   -0.751580    0.017076
C      -1.280957   -2.109634   -0.026698
C      -2.614698   -2.419040    0.016994
C      -3.258729   -1.155181    0.087893
O      -4.588513   -0.971169    0.148812
N      -2.407449   -0.146496    0.088628
H       0.630989    1.924934    0.040486
H      -1.107851    1.687521    0.101661
H      -0.390825   -2.713314   -0.084396
H      -3.075467   -3.391872    0.001564
H      -4.750527   -0.020124    0.189071
