13

N      -0.109372    1.346490    0.030748
C      -0.007961    0.082912    0.062664
C      -1.253161   -0.764857   -0.029188
O      -1.191408   -1.995869    0.699987
C      -0.057693   -2.728030    0.714238
O      -0.048481   -3.850445    1.117438
C       1.253493   -2.030785    0.278102
O       2.288626   -2.636276    0.188216
N       1.168323   -0.662400    0.088915
H       0.800197    1.811990    0.023927
H      -2.095739   -0.204980    0.372077
H      -1.453150   -0.988361   -1.085213
H       2.056632   -0.189892   -0.033871
