15

N       0.205893    1.356134    0.130471
C       0.026905    0.002060    0.038937
N      -1.085466   -0.647718   -0.124373
C      -0.698673   -1.990915   -0.063908
C      -1.704856   -3.087926   -0.181342
C      -2.640915   -3.135097    1.021111
O      -2.989250   -4.150305    1.564069
C       0.635645   -2.062709    0.130886
O       1.123714   -0.767571    0.195717
H       1.116767    1.689224   -0.147760
H      -0.561375    1.887921   -0.251593
H      -2.334161   -2.902981   -1.063899
H      -1.234900   -4.067159   -0.296759
H      -2.992530   -2.137652    1.362052
H       1.358927   -2.852036    0.229622
