15

O      -0.027631    0.159164    0.693894
C      -0.035669    1.235787    0.166593
O      -1.187276    1.709753   -0.358581
C      -1.327704    2.979805   -1.004236
C      -0.074638    3.772174   -1.165624
C       1.092553    3.371259   -0.675480
C       1.202986    2.103541    0.065231
C       2.219681    1.910893    1.125397
O       2.408267    1.349118   -0.160557
H      -1.779569    2.777824   -1.984233
H      -2.071742    3.547892   -0.428821
H      -0.173195    4.705677   -1.711473
H       2.003842    3.945496   -0.807978
H       2.871025    2.746477    1.380317
H       2.002398    1.198395    1.917656
