16

O       0.020642    0.052133   -0.089950
C      -0.010652    1.244485    0.008576
C      -1.158246    2.261763    0.055420
C      -0.744363    3.094299    1.274748
N       0.753760    3.028913    1.234886
C       1.104820    2.310828   -0.002746
C       0.656926    3.101726   -1.249092
N      -0.849566    3.069691   -1.153550
H      -2.175349    1.876451    0.053704
H      -1.123754    4.116839    1.181754
H      -1.119321    2.661577    2.209704
H       1.157404    3.958481    1.238439
H       2.127714    1.939285   -0.007872
H       1.017230    4.137222   -1.226754
H       1.013538    2.638991   -2.177019
H      -1.228663    2.601237   -1.969620
