16

O       0.103995   -0.072116   -0.474696
C      -0.047113    1.076997   -0.094593
N      -1.249811    1.722569   -0.214379
C      -1.582139    3.018455    0.353327
C      -0.836432    4.146216   -0.339800
O      -0.159811    5.074022    0.510993
C       0.627016    4.156351   -0.274338
C       1.397014    3.112512    0.453393
C       1.094873    1.813517    0.534060
H      -1.982600    1.149407   -0.604131
H      -2.662302    3.155963    0.263294
H      -1.331163    3.060303    1.418995
H      -1.319853    4.593961   -1.207650
H       1.176707    4.648721   -1.078114
H       2.323451    3.457823    0.908588
H       1.783610    1.135467    1.028840
