17

O       0.203509    1.396558   -0.158407
C      -0.028728    0.037782   -0.017193
C      -0.445990   -0.697287    1.250382
C      -1.387853    0.017817    2.232401
C      -2.751478   -0.688756    1.998598
C      -2.558311    0.074676    0.665764
O      -1.909349    1.142932    1.433506
C      -1.362873   -0.667161    0.020653
O      -1.638447   -1.811058   -0.722927
H      -0.476988    1.827174    0.379711
H       0.708209   -0.527018   -0.584459
H       0.084242   -1.588652    1.565069
H      -1.020170    0.311236    3.214863
H      -2.776462   -1.779651    1.970124
H      -3.552752   -0.270944    2.610494
H      -3.377453    0.411263    0.030345
H      -1.731080   -1.553281   -1.646714
