20

C      -0.501349    1.227656    0.301634
N      -0.174201   -0.167895    0.105712
C       0.674627   -0.741495    0.841888
C       1.482986   -0.188908    1.993717
O       0.994015   -2.058160    0.643272
C       0.316590   -2.734010   -0.398384
C       0.627048   -4.203625   -0.489203
C      -0.708360   -3.735106    0.056995
O      -0.987300   -3.852078    1.417041
H       0.046082    1.731024    1.110178
H      -0.313184    1.777805   -0.627857
H      -1.573735    1.321549    0.509649
H       0.826981    0.164130    2.794808
H       2.143000   -0.959470    2.391840
H       2.091612    0.659739    1.668813
H       0.154674   -2.128675   -1.280238
H       0.678802   -4.657285   -1.473067
H       1.329166   -4.598150    0.237975
H      -1.600230   -3.877123   -0.544740
H      -0.350160   -3.296024    1.882018
