23

C      -0.316644    1.821559   -0.150372
C      -0.161201    0.307630    0.032626
C      -1.464201   -0.452913   -0.206097
C      -2.091089   -0.594660   -1.638795
C      -2.263770   -2.101325   -1.401453
C      -0.929197   -2.781239   -1.176545
C       0.348932   -2.526531   -1.950709
C      -1.541156   -1.978989   -0.056726
O      -1.894787   -2.577422    1.146885
H       0.625808    2.346414    0.034816
H      -0.639317    2.067165   -1.168129
H      -1.065758    2.227203    0.538892
H       0.626719   -0.061654   -0.632668
H       0.181372    0.098483    1.055374
H      -2.234003   -0.037498    0.455486
H      -3.036361   -0.059512   -1.747049
H      -1.443645   -0.315577   -2.476462
H      -3.152677   -2.670351   -1.645652
H      -1.087155   -3.839118   -0.965644
H       0.436742   -1.494768   -2.297012
H       1.234882   -2.748010   -1.344631
H       0.387528   -3.169830   -2.837144
H      -1.099756   -2.940397    1.550459
