18

C       0.356526    1.110943   -0.282247
O      -0.293476    0.004345    0.324794
C       0.463496   -0.604088    1.307397
C       0.008941   -1.952588    1.741288
N      -1.105678   -2.544994    1.068148
C       1.324823   -1.832810    0.910832
N       1.284659   -2.365207   -0.414548
C       2.560756   -1.990881    1.635336
N       3.537816   -2.076189    2.251103
H       1.302291    0.817113   -0.756145
H      -0.323042    1.501875   -1.041736
H       0.566887    1.898506    0.454662
H       0.877399    0.067377    2.060377
H       0.145089   -2.193558    2.791348
H      -1.529856   -3.280188    1.616528
H      -1.804056   -1.852673    0.824920
H       0.370121   -2.794174   -0.549771
H       1.396551   -1.641853   -1.115709
