19

C      -0.257321    1.349552    0.031260
O      -0.201478   -0.042927   -0.187507
C       0.654442   -0.514778   -1.218413
C       0.224768   -0.018616   -2.610625
C       2.134972   -0.197242   -0.944004
C       0.500227   -2.052268   -1.208558
O       1.125471   -2.743070   -1.984545
C      -0.412104   -2.641868   -0.249071
C      -1.148615   -3.210422    0.514668
H       0.713961    1.768968    0.326877
H      -0.623428    1.899875   -0.846151
H      -0.962413    1.501364    0.852020
H       0.441044    1.045860   -2.734340
H       0.770354   -0.572068   -3.377772
H      -0.847578   -0.177721   -2.757728
H       2.401694   -0.478399    0.079074
H       2.761618   -0.761537   -1.637727
H       2.342279    0.867531   -1.080035
H      -1.802005   -3.701638    1.193901
