17

C       0.314888    1.377910    0.198480
N      -0.196720    0.091181   -0.240204
C       0.487359   -0.636224   -1.186550
N       0.370833   -1.950176   -1.233532
O       1.134176   -2.345188   -2.346967
C       1.679549   -1.261263   -2.911612
C       2.539433   -1.473038   -4.120569
O       3.430688   -0.396460   -4.335112
C       1.327407   -0.138718   -2.232581
H       1.313689    1.325875    0.657759
H       0.363499    2.070560   -0.647213
H      -0.379576    1.801166    0.927615
H      -0.577324   -0.491044    0.492152
H       3.054799   -2.440747   -4.027765
H       1.915759   -1.530118   -5.020165
H       4.003087   -0.333509   -3.563001
H       1.601951    0.876503   -2.459429
