18

C       0.287336    1.434452    0.150087
O       0.235851    0.025339    0.286815
C      -1.027987   -0.530821    0.016645
C      -1.625502   -0.434274   -1.416695
C      -1.952811   -1.950338   -1.341344
C      -0.976493   -2.079866   -0.143082
C      -2.010488   -0.165696    1.118457
O      -3.199453   -0.034501    0.977014
H       1.308324    1.739555    0.388562
H       0.050155    1.752145   -0.874663
H      -0.402696    1.945949    0.837631
H      -2.462964    0.252095   -1.548465
H      -0.839285   -0.214865   -2.143154
H      -2.989418   -2.122302   -1.046158
H      -1.729312   -2.553336   -2.222720
H       0.034535   -2.361081   -0.447376
H      -1.276484   -2.689454    0.712939
H      -1.520356   -0.067043    2.115142
