17

C       0.097608   -1.195222    0.021527
C       0.001385    0.006943   -0.001388
C      -0.051830    1.415495   -0.053926
C      -1.130901    2.214354    0.069842
C      -0.710807    3.636302    0.025313
C       0.488310    4.094613    0.904529
C       1.331984    2.918334    1.375715
C       1.191629    2.298797   -0.070728
C       0.684324    3.701462   -0.539519
H       0.164444   -2.254257    0.046898
H      -2.149623    1.882223    0.221258
H      -1.420896    4.419723   -0.211694
H       0.464117    5.083186    1.347408
H       2.360674    3.242118    1.552428
H       0.986022    2.308799    2.216559
H       2.084724    1.860925   -0.510729
H       0.991663    4.274789   -1.405454
