13

C      -0.035609    1.425497    0.009137
C       0.018097   -0.024638    0.009228
C       0.065632   -1.228864    0.009781
C       0.106222   -2.635785    0.009117
N       1.148982   -3.420216    0.095305
C       0.567709   -4.657322    0.042335
O       1.277498   -5.782251    0.099266
N      -0.738616   -4.674387   -0.068577
O      -1.053343   -3.307733   -0.091262
H       0.971517    1.854398   -0.002275
H      -0.573746    1.795794   -0.869915
H      -0.552943    1.796399    0.900495
H       2.205336   -5.528769    0.178742
