16

O      -0.050627    0.036893   -0.130467
C      -0.084708    1.225400   -0.008368
C      -1.168186    2.260654   -0.079485
C      -1.056587    3.166472    1.141767
C      -0.085949    3.365093    0.030660
C       1.034682    2.313158    0.084496
C       2.031269    2.337011    1.253060
C       3.002415    1.246270    1.192363
N       3.786367    0.399646    1.137212
H      -2.073711    2.220050   -0.670589
H      -1.853846    3.898645    1.215196
H      -0.750302    2.758399    2.100236
H      -0.041093    4.277403   -0.548910
H       1.584210    2.279806   -0.863013
H       2.582369    3.285436    1.245400
H       1.509959    2.286565    2.214552
