15

C      -0.703508    1.459332    0.318862
C      -0.169707    0.085309    0.079220
C       0.311143   -0.490254   -1.078821
C       0.464615    0.048377   -2.473180
C       1.014441   -0.943984   -3.395973
N       1.451427   -1.758073   -4.089386
N       0.654731   -1.745543   -0.701594
N       0.409918   -1.953758    0.601594
N      -0.088416   -0.846609    1.073783
H       0.046852    2.232278    0.117159
H      -1.575530    1.676128   -0.308542
H      -1.007178    1.546668    1.363782
H      -0.503413    0.387907   -2.862426
H       1.121012    0.927679   -2.476162
H       1.046434   -2.484528   -1.267575
