17

O      -0.111452    0.010925   -0.066912
C       0.016746    1.199084    0.034626
C       1.360564    1.957445   -0.011663
C       2.541283    0.968364   -0.242698
C       2.795156    1.069438   -1.725032
C       2.142748    2.081712   -2.290157
C       1.325407    2.866320   -1.296278
C       1.442139    2.729102    1.220866
C       1.464387    3.354943    2.247832
H      -0.856834    1.874306    0.165874
H       3.421493    1.263447    0.339581
H       2.255556   -0.038767    0.074083
H       3.461038    0.387493   -2.241458
H       2.191765    2.358125   -3.337155
H       0.295990    3.055763   -1.627898
H       1.765181    3.848121   -1.084978
H       1.504598    3.909352    3.152816
