17

O      -0.170845    1.486118    0.032381
C       0.009161    0.094458    0.032376
C       0.282200   -0.633883    1.380188
C      -0.762597   -1.701461    0.962777
C      -0.362393   -3.141469    0.596387
O      -1.278144   -3.661353    1.615180
C      -1.667046   -2.392465    1.975266
O      -2.451294   -2.077085    2.811245
C      -1.306103   -0.700375   -0.089681
H       0.692142    1.910475    0.072964
H       0.733553   -0.217997   -0.733803
H       1.295870   -0.977543    1.600556
H      -0.097100   -0.038227    2.215119
H      -0.654937   -3.489578   -0.397289
H       0.666765   -3.432981    0.820116
H      -2.131796   -0.119360    0.330098
H      -1.593188   -1.091681   -1.067748
