23

C       0.141494    1.664684   -0.409561
C       0.232457    0.171141   -0.185800
O      -0.944530   -0.496191   -0.598830
C       1.469915   -0.665928   -0.384568
C       2.726701    0.012366    0.174924
C       2.089493   -0.010336    1.615696
C       2.749500   -1.102858    2.466103
C       2.033727    1.292828    2.414864
C       0.791186   -0.566649    0.998695
H       1.074544    2.187373   -0.196496
H      -0.105193    1.861435   -1.461145
H      -0.651978    2.101667    0.204834
H      -1.011557   -0.400158   -1.555460
H       1.457007   -1.498605   -1.078448
H       3.625356   -0.605738    0.108417
H       2.963393    0.998108   -0.238734
H       3.770719   -0.816480    2.742234
H       2.186136   -1.272564    3.391134
H       2.796207   -2.053195    1.924754
H       1.571882    2.112439    1.861597
H       1.458638    1.152525    3.337595
H       3.042683    1.611329    2.702961
H       0.155160   -1.300240    1.482858
