18

C       0.218526    0.905198    0.982777
C       0.024284    0.233911   -0.361034
O       0.880629    0.212269   -1.217467
C      -1.312998   -0.453958   -0.563372
C      -1.529669   -1.372571   -1.756879
C      -0.686016   -2.485244   -1.063651
C      -1.779916   -3.548664   -1.184746
C      -2.500827   -2.231565   -0.890306
N      -1.416998   -1.818789    0.146566
H       1.245050    1.259327    1.083168
H      -0.471593    1.751376    1.082738
H      -0.023739    0.200709    1.786042
H      -2.141175    0.206123   -0.272961
H      -1.594014   -1.143108   -2.823478
H       0.397586   -2.591331   -1.065867
H      -1.934596   -3.985299   -2.174278
H      -1.811252   -4.304471   -0.395652
H      -3.553663   -2.034085   -0.679606
