15

N      -0.073080    1.275231    0.099490
C       0.048799    0.028695    0.012083
C       1.135212   -1.052512   -0.058033
O       1.413293   -1.426062    1.294035
C       0.284566   -2.138486    1.740571
C      -0.356448   -2.942344    0.654795
C      -1.098818   -1.742301    1.247452
N      -1.010235   -0.965020   -0.032262
C      -0.026684   -2.017618   -0.517939
H       0.842049    1.729841    0.072483
H       2.074454   -0.918139   -0.597519
H       0.394151   -2.513276    2.750023
H      -0.561598   -4.002675    0.643138
H      -1.976843   -1.679786    1.879466
H      -0.099773   -2.328586   -1.557124
