16

O       0.019617    1.376403   -0.264110
C       0.079550    0.025115    0.147713
C      -1.302425   -0.599003    0.113066
O      -1.883998   -0.508884   -1.221951
C      -2.187832   -1.920495   -1.238721
C      -1.494272   -2.137515    0.132340
N      -0.491287   -2.935360   -0.569473
C      -1.013738   -2.748625   -1.842305
O      -0.637781   -3.072384   -2.931974
H      -0.388722    1.376626   -1.138444
H       0.766794   -0.558139   -0.482491
H       0.467729    0.019376    1.172705
H      -1.966144   -0.096603    0.827930
H      -3.221166   -2.149820   -1.497655
H      -1.945406   -2.603887    1.006278
H       0.442904   -3.205948   -0.293567
