23

C       0.127373    1.528523    0.143480
C       0.358070    0.032990    0.006286
O       0.391814   -0.537186    1.301135
C       0.580345   -1.926176    1.299181
C       2.003367   -2.483841    0.999898
C       1.842584   -3.437193    2.210893
C       1.428292   -4.856522    1.834846
O       3.007052   -3.445190    3.016369
C       0.659342   -2.545844    2.707507
H       0.933524    1.988807    0.721801
H       0.092355    2.002140   -0.842248
H      -0.817470    1.724865    0.658244
H      -0.447139   -0.430352   -0.589541
H       1.303854   -0.163489   -0.524261
H      -0.182770   -2.411093    0.670318
H       2.203454   -2.933002    0.024223
H       2.759947   -1.728256    1.225400
H       2.251079   -5.370145    1.327731
H       1.160760   -5.433013    2.729856
H       0.556788   -4.859759    1.172238
H       2.857344   -4.046871    3.754111
H       1.025539   -1.800128    3.416872
H      -0.232327   -3.035844    3.106742
