16

O      -0.081747    1.315831    0.468289
C      -0.110450   -0.028769    0.204031
C       0.828268   -0.756446   -0.754907
O      -0.235149   -1.674348   -1.146910
C      -1.174441   -0.970394   -0.343726
C      -0.783466   -1.025762    1.111387
N      -0.069516   -2.113786    1.699942
C       0.965272   -1.870034    2.547269
O       1.331659   -0.758614    2.876840
H       0.341872    1.414924    1.331862
H       1.121667   -0.129715   -1.602688
H       1.698217   -1.273637   -0.337559
H      -2.189443   -0.864351   -0.708614
H      -1.508052   -0.534539    1.759779
H      -0.274162   -3.059739    1.418677
H       1.442137   -2.798930    2.914471
