17

C      -0.003105    1.543068    0.079250
C      -0.066670    0.016218    0.037107
C      -1.499639   -0.503618    0.109493
O      -2.459361    0.141897   -0.268941
N      -1.626129   -1.775144    0.611043
C      -2.908752   -2.432291    0.729815
C      -3.046238   -3.613461   -0.218581
O      -3.635933   -4.627205    0.044984
H       1.020432    1.891625   -0.082508
H      -0.649182    1.967569   -0.691508
H      -0.346111    1.925026    1.045149
H       0.359746   -0.351829   -0.905725
H       0.536324   -0.427551    0.838322
H      -0.804104   -2.249870    0.946615
H      -3.114058   -2.765979    1.752057
H      -3.659854   -1.682616    0.449176
H      -2.546958   -3.457641   -1.202725
