21

O       0.267046    1.400521   -0.279626
C       0.085122    0.004683   -0.063939
C       0.633023   -0.479827    1.343045
C      -0.521893   -1.199683    2.121845
C      -1.728323   -0.581422    1.455264
C      -3.207280   -0.830278    1.034959
C      -2.711142    0.410533    0.199500
C      -2.088875    0.943916    1.513402
C      -1.398050   -0.406168   -0.038878
H       1.212292    1.580836   -0.254001
H       0.594563   -0.548008   -0.865604
H       1.509807   -1.125729    1.236267
H       0.953029    0.411118    1.893391
H      -0.492396   -2.281435    1.946275
H      -0.449857   -1.035369    3.201149
H      -3.412675   -1.749575    0.478167
H      -3.983243   -0.626821    1.778051
H      -3.294189    0.969277   -0.533907
H      -2.790935    1.232699    2.301647
H      -1.278477    1.661929    1.408339
H      -1.545719   -1.308969   -0.641926
