20

C      -0.020869    1.641178    0.057784
C      -0.275482    0.135281    0.176929
C       0.694804   -0.591457    1.108629
C       0.637269   -0.122566    2.554674
C       0.738407   -2.132126    0.920398
C       2.176918   -1.894921    0.399901
O       2.070490   -0.477974    0.593047
C       3.256320   -2.496026    1.192170
N       4.096737   -2.982222    1.819132
H       1.019926    1.830397   -0.219990
H      -0.662970    2.078499   -0.712083
H      -0.225111    2.168175    0.994246
H      -1.298428   -0.055601    0.527456
H      -0.195997   -0.322526   -0.816355
H      -0.368742   -0.264845    2.964400
H       1.345319   -0.685115    3.169059
H       0.893853    0.937199    2.630602
H       0.669969   -2.719225    1.835921
H       0.051797   -2.530937    0.172996
H       2.337870   -2.152236   -0.653871
