20

C      -0.175866    1.656682   -0.125269
C      -0.006134    0.140068    0.013892
C      -1.370772   -0.581521    0.132304
C      -2.147935   -0.177836    1.298058
C      -2.774076    0.158688    2.267646
C       0.791528   -0.450712   -1.156804
C       2.260922   -0.025569   -1.145461
N       2.873410   -0.050131   -2.365376
O       2.851260    0.290246   -0.130365
H       0.797886    2.152208   -0.144545
H      -0.711739    1.909843   -1.049043
H      -0.748032    2.060081    0.714125
H       0.566603   -0.058810    0.925241
H      -1.960450   -0.397859   -0.777219
H      -1.205336   -1.666342    0.172413
H      -3.332104    0.451442    3.122057
H       0.781809   -1.548212   -1.101051
H       0.326683   -0.185829   -2.115565
H       2.402010   -0.350910   -3.199731
H       3.860976    0.141515   -2.407144
