21

C       0.175384    1.564583    0.038638
C       0.033447    0.054368   -0.041050
C       0.663974   -0.699517   -1.239638
C       1.192205   -1.729947   -0.191286
C       0.364379   -3.023982   -0.140777
C       2.623377   -2.061279   -0.284540
N       3.745511   -2.327427   -0.363701
N       0.916779   -0.717013    0.855076
C       0.484775   -1.099506    2.181058
H       1.220722    1.858573   -0.093118
H      -0.428984    2.050146   -0.735342
H      -0.165245    1.940551    1.009371
H      -1.028040   -0.224125    0.081338
H      -0.010949   -1.103200   -1.994747
H       1.465287   -0.136650   -1.719777
H       0.554322   -3.623961   -1.035278
H       0.622031   -3.628542    0.732907
H      -0.703179   -2.790431   -0.102261
H       1.259298   -1.704919    2.662973
H       0.350852   -0.197070    2.786088
H      -0.463404   -1.664916    2.202747
