18

N       0.047491   -1.167461   -0.033857
C       0.035413   -0.009489   -0.008624
C      -0.006322    1.413025    0.052019
C       0.242915    2.299556   -1.152210
C       1.154802    2.436718    0.024580
C       0.491439    3.239291    1.153884
C      -0.673023    2.225972    1.156880
C      -2.142804    2.463499    1.341730
C      -1.358567    1.660670    2.359105
H       0.662384    1.795060   -2.015852
H      -0.485178    3.072926   -1.382356
H       2.210467    2.209454   -0.045984
H       1.064710    3.214599    2.083693
H       0.246513    4.278366    0.911492
H      -2.463569    3.462998    1.617017
H      -2.834349    1.931169    0.696880
H      -1.518725    0.587714    2.391587
H      -1.149646    2.113174    3.323159
