17

C      -0.118972    1.578989   -0.013959
C      -0.040443    0.060769   -0.020685
C       1.185719   -0.628024   -0.644285
N       2.077139   -0.281062    0.573111
C       2.524479   -1.734525    0.688059
C       1.063062   -1.892243    0.277280
O       0.269881   -3.016253    0.133678
C       0.677884   -0.661627    1.133056
H       0.840101    2.018350    0.271596
H      -0.390234    1.959892   -1.004698
H      -0.881010    1.927245    0.691848
H      -0.991588   -0.403558   -0.299180
H       1.594413   -0.565302   -1.655664
H       3.304523   -2.006389   -0.031469
H       2.811403   -2.024201    1.704068
H       0.631169   -3.560906   -0.574560
H       0.494909   -0.634054    2.209124
