23

C       0.273285    1.498309   -0.330058
C      -0.117623    0.077235    0.094352
C       0.646099   -0.446093    1.306724
C       2.029448   -1.020453    1.058837
C       0.880696   -1.936049    1.422963
C       0.820331   -2.582348    2.806566
C      -0.180835   -1.876888    3.741218
C      -0.010009   -0.377286    3.694220
C       0.387714    0.261635    2.592905
H       1.344144    1.564158   -0.549983
H      -0.273589    1.800457   -1.228779
H       0.048668    2.231267    0.451135
H      -1.194655    0.041170    0.304112
H       0.054897   -0.606778   -0.746173
H       2.398443   -1.032708    0.037519
H       2.793946   -0.856245    1.811491
H       0.481182   -2.537543    0.611241
H       0.561882   -3.642295    2.711133
H       1.810425   -2.548287    3.275475
H      -1.210392   -2.139828    3.456656
H      -0.054242   -2.240844    4.767008
H      -0.218205    0.185250    4.600911
H       0.510699    1.342155    2.605315
