22

C       3.149398   -1.359542    1.129460
N       1.847005   -1.294106    0.481757
C       0.727790   -1.899531    1.190230
C       0.820044   -0.414722    1.060244
C       1.113631    0.509419    2.223529
C      -0.031509    1.406415    2.797536
C      -0.605352    0.141430    3.500314
C       0.936010    0.088635    3.722830
C       0.861546    1.606418    4.054516
H       3.116456   -1.313958    2.229392
H       3.634213   -2.298548    0.843953
H       3.776654   -0.536122    0.772006
H       0.028414   -2.471749    0.585318
H       0.920026   -2.319422    2.177092
H       0.209720    0.052384    0.286726
H       2.037025    1.070096    2.032043
H      -0.589312    2.172108    2.255171
H      -1.215071    0.317377    4.390822
H      -1.045928   -0.626404    2.863463
H       1.499230   -0.672406    4.266035
H       1.778967    2.186981    3.921842
H       0.344862    1.876407    4.979116
