14

O      -0.046544   -0.008348    0.132286
C       0.010931    1.200303    0.075623
C       1.261639    1.957967   -0.010435
C       1.341193    3.300310   -0.047533
C       2.766362    3.734798   -0.048920
O       3.472315    3.299092    1.134543
C       3.576296    2.496447   -0.040414
C       2.630011    1.303608   -0.060871
H      -0.910298    1.824195    0.074876
H       0.496548    3.979647   -0.045031
H       3.090620    4.684465   -0.461396
H       4.568298    2.437209   -0.479170
H       2.792727    0.632027    0.788267
H       2.750684    0.703241   -0.969672
