20

C      -0.004085    1.656306    0.128065
C       0.071587    0.142118    0.013975
C       1.049255   -0.495220   -1.015726
C       1.369045   -1.596430    0.029974
N       2.734936   -2.021182    0.191223
C       3.137034   -3.321666    0.175507
O       2.411011   -4.280645    0.022142
C       0.783707   -0.661363    1.137824
O       1.788095    0.137123    1.743408
H       0.981382    2.081351    0.333791
H      -0.381263    2.093039   -0.802869
H      -0.675437    1.962546    0.937281
H      -0.930858   -0.277070   -0.123916
H       0.649205   -0.818222   -1.979242
H       1.915403    0.150417   -1.192062
H       0.767199   -2.495009   -0.109018
H       3.425842   -1.302989    0.344832
H       4.232529   -3.411269    0.320395
H       0.147040   -1.130362    1.898280
H       2.212290   -0.396499    2.422817
