19

C      -0.072915    1.470329    0.100805
C       1.315587    0.854113    0.006381
C       2.212309    0.393307    1.149559
C       2.293734   -1.166898    1.126880
C       0.862729   -1.781062    0.923278
O      -0.073527   -0.722344    1.167061
C       0.052399   -0.001452   -0.043059
C       0.008864   -1.056963   -1.108362
C       0.540538   -2.139579   -0.537748
H      -0.444410    1.819284    1.059531
H      -0.396975    2.059747   -0.750513
H       1.811847    1.009603   -0.947690
H       3.216866    0.820169    1.067947
H       1.807320    0.717440    2.111212
H       2.965580   -1.497913    0.327902
H       2.720955   -1.524085    2.068936
H       0.661109   -2.588214    1.630670
H      -0.284368   -0.909692   -2.138480
H       0.769040   -3.090929   -0.998869
