16

N      -0.433016    1.128278    0.365736
C      -0.433051   -0.130754    0.391669
O      -0.746192   -0.818549   -0.734905
C      -0.829919   -2.229959   -0.628110
C      -2.203116   -2.685084   -0.177198
C      -2.388313   -4.188012    0.097775
C      -2.608120   -3.729950    1.540882
O      -2.844137   -4.215461    2.596931
O      -2.433245   -2.396441    1.247862
H      -0.160016    1.494243    1.275412
H      -0.193308   -0.775522    1.245528
H      -0.631017   -2.623700   -1.629905
H      -0.064190   -2.623249    0.054810
H      -2.984852   -2.211205   -0.774711
H      -3.254009   -4.664671   -0.363247
H      -1.505991   -4.816875   -0.041530
