11

O      -0.041065   -0.012745   -0.102600
C      -0.042843    1.166655    0.018024
C      -1.087267    2.264815    0.245877
N       0.024933    3.219499    0.489144
C       1.067087    2.277718    0.014415
C       2.219332    2.105620    0.889495
N       3.130781    1.947561    1.582051
H      -1.692275    2.444732   -0.653621
H      -1.756845    2.120400    1.099917
H      -0.023060    4.082566   -0.037702
H       1.418064    2.441825   -1.015307
