17

O      -0.777009    0.869971    0.643503
C       0.066126    1.009225   -0.202579
C       1.273546    1.914152   -0.077765
C       1.289917    2.983521   -1.187929
N       2.516081    3.757584   -1.207493
C       2.893323    4.736080   -0.309948
C       4.141294    5.138030   -0.705850
N       4.546363    4.436646   -1.817590
C       3.553682    3.621546   -2.086596
H       0.002601    0.459790   -1.171594
H       1.274453    2.371668    0.914313
H       2.175910    1.296839   -0.180039
H       1.184520    2.508821   -2.168778
H       0.440430    3.663198   -1.065485
H       2.246830    5.044389    0.495395
H       4.767283    5.895252   -0.258781
H       3.513616    2.914952   -2.903378
