19

C       0.006756    1.616849    0.010860
C       0.008074    0.077195    0.002610
C      -1.334519   -0.495164    0.012582
C      -2.450626   -0.945041    0.020864
C      -3.808311   -1.495830    0.030079
C      -3.843437   -2.960626    0.022099
C      -3.885880   -4.162128    0.015927
C      -3.908185   -5.619439    0.009315
O      -5.255807   -6.077090    0.019683
H       1.031736    1.999424    0.002995
H      -0.514739    2.009524   -0.866256
H      -0.497636    2.000059    0.902052
H       0.550879   -0.283554   -0.880509
H       0.567827   -0.292914    0.871153
H      -4.349177   -1.124904    0.912069
H      -4.365100   -1.115014   -0.837671
H      -3.371324   -5.983376   -0.882042
H      -3.354865   -5.991730    0.887061
H      -5.230405   -7.039393    0.014685
