21

C       0.152710    1.576989    0.019152
C      -0.393581    0.191638   -0.349321
C       0.479378   -0.501948   -1.367082
O       1.731397   -1.036296   -0.913487
C       0.733644   -1.952288   -1.396864
C       0.136820   -2.934897   -0.386180
C       0.204982   -4.379516   -0.911312
C       0.899237   -2.840656    0.930346
O       0.420155   -2.477807    1.972644
H       1.153815    1.491399    0.451646
H       0.220454    2.225813   -0.861057
H      -0.493042    2.070386    0.750920
H      -0.482340   -0.423142    0.550703
H      -1.401654    0.287876   -0.774517
H       0.566319    0.023901   -2.321576
H       0.988579   -2.394072   -2.361996
H      -0.903810   -2.671707   -0.171929
H       1.243128   -4.694430   -1.065264
H      -0.263071   -5.076962   -0.210911
H      -0.315083   -4.463810   -1.870282
H       1.960247   -3.167523    0.863777
