21

C      -0.392220    1.421080   -0.021798
C       0.062253   -0.029586   -0.067933
C       1.413687   -0.352734   -0.734255
O       1.860829   -1.086619    0.419194
C       0.686070   -0.698370    1.191111
C       1.091842    0.168341    2.408759
C       1.034177   -0.797247    3.566890
C       0.431213   -1.937653    3.235466
C      -0.014930   -1.934655    1.795523
H       0.398993    2.082047    0.346855
H      -0.673282    1.766879   -1.022677
H      -1.266411    1.548128    0.626032
H      -0.741627   -0.654131   -0.470553
H       1.388784   -0.974831   -1.636848
H       2.042711    0.527727   -0.930582
H       2.084946    0.601132    2.247464
H       0.397990    1.006102    2.563132
H       1.422726   -0.553613    4.549430
H       0.249817   -2.771026    3.904828
H      -1.108407   -1.845489    1.715671
H       0.274052   -2.832564    1.238526
