14

O       0.542712    1.585958   -0.144850
C       0.160127    0.222496    0.004808
C       0.434749   -0.568529   -1.201432
C       0.684782   -1.205827   -2.188949
C       0.794014   -0.395071    1.228594
C       1.254811    0.252106    2.332086
O       1.735126   -0.622760    3.225909
N       1.595549   -1.911271    2.718961
C       1.041415   -1.761894    1.542167
H       1.474219    1.596503   -0.395503
H      -0.927948    0.266326    0.145473
H       0.894703   -1.764883   -3.067784
H       1.305359    1.294196    2.603406
H       0.837017   -2.633604    0.937210
