18

C      -0.019626    1.551547    0.029631
C       0.118139    0.045965    0.128936
C       1.391783   -0.742814   -0.215237
C       2.576741   -0.060166    0.356491
C       2.022255   -0.037188    1.777210
C       0.766123   -0.722556    1.225785
O       0.162604   -1.711011    1.972268
N       3.687662    0.235295   -0.178906
O       4.564242    0.798888    0.774461
H       0.884680    2.064080    0.366775
H      -0.199968    1.852216   -1.007697
H      -0.858566    1.912409    0.634854
H      -0.748924   -0.492009   -0.261046
H       1.398104   -1.489927   -0.998778
H       2.593236   -0.712270    2.421264
H       1.907530    0.926207    2.282015
H      -0.757142   -1.791671    1.701959
H       5.358801    0.947276    0.251263
