16

C      -0.021919    1.460736    0.027789
O       0.105202    0.060365   -0.083334
C       0.647141   -0.558937    1.062080
C      -0.335451   -0.872743    2.163596
C      -0.332526   -2.164198    2.499197
C       0.636940   -2.982037    1.689286
C       1.177038   -1.967026    0.672529
O       1.873434   -2.203147   -0.274172
H       0.947917    1.938476    0.236077
H      -0.396801    1.824459   -0.931694
H      -0.729996    1.757309    0.816093
H       1.500062    0.035775    1.437656
H      -0.957669   -0.112855    2.621568
H      -0.952890   -2.602517    3.273073
H       1.469256   -3.383657    2.282967
H       0.183778   -3.840226    1.178787
