18

C      -0.196064    1.525485    0.007322
N       0.106043    0.111252    0.016928
C       0.987966   -0.498976   -0.994372
C       2.429590    0.069612   -1.039528
N       2.816466   -0.665080    0.215683
C       2.243225    0.046461    1.411554
C       0.825808   -0.519113    1.138299
C       1.514436   -1.458284    0.109195
H       0.683379    2.188382    0.080359
H      -0.726063    1.775181   -0.918510
H      -0.860131    1.758521    0.847036
H       0.494443   -0.770618   -1.932305
H       3.002732   -0.327222   -1.884817
H       2.566148    1.155740   -1.003956
H       2.682554   -0.366999    2.326171
H       2.382042    1.132869    1.417441
H       0.196545   -0.807611    1.985572
H       1.528587   -2.545603    0.100004
