25

C       0.054935    1.460314    0.228702
C      -0.123532   -0.037944   -0.038486
C       0.675556   -0.534420   -1.236243
C       2.228953   -0.581564   -1.149621
C       2.200548   -1.924785   -1.930286
C       3.173262   -3.024685   -1.529140
C       2.968309   -4.318529   -2.307399
O       3.922767   -5.265179   -1.848239
C       0.695909   -2.055759   -1.551892
H       1.105250    1.706417    0.419364
H      -0.272614    2.056806   -0.630275
H      -0.525038    1.783607    1.098773
H       0.175455   -0.608278    0.851652
H      -1.187722   -0.258902   -0.197875
H       0.375879    0.023900   -2.132227
H       2.799371    0.246798   -1.577646
H       2.561077   -0.734191   -0.115658
H       2.291167   -1.724500   -3.005322
H       4.206758   -2.688316   -1.681990
H       3.070115   -3.242138   -0.458349
H       1.940167   -4.686062   -2.156448
H       3.087725   -4.124488   -3.386544
H       3.782708   -6.088224   -2.325153
H       0.570423   -2.649349   -0.638176
H       0.001019   -2.432258   -2.307392
