18

C      -0.046990    1.297008    0.050858
C       1.277466    0.639511   -0.009313
C       1.722538    0.145648    1.335645
C       0.356861   -0.585464    1.406003
N      -0.028605   -0.176762    0.042515
C       1.630049   -1.355463    1.361454
C       2.126597   -2.455678    0.429724
C       2.525308   -3.156606    1.747118
O       2.056480   -2.034685    2.538368
H      -0.352216    1.814453    0.957333
H      -0.435096    1.713205   -0.874050
H       1.881810    0.654209   -0.911422
H       2.284807    0.689279    2.086670
H      -0.365703   -0.674483    2.209454
H       1.353011   -2.946411   -0.161476
H       2.959736   -2.175810   -0.217293
H       1.972024   -4.072079    1.983648
H       3.596126   -3.331182    1.896071
