13

O       0.158271   -0.093294   -0.020817
C       0.097971    1.103957   -0.093938
C       1.299387    2.037863   -0.034104
C       1.360258    2.768474    1.353812
O       2.609675    2.371150    1.889491
C       2.974039    1.192735    1.207248
O       2.529156    1.357235   -0.121443
H      -0.877342    1.638915   -0.190832
H       1.229306    2.750157   -0.864852
H       1.349188    3.856788    1.259240
H       0.530796    2.462135    2.007651
H       4.062454    1.097958    1.212097
H       2.501156    0.308343    1.664143
