15

C      -0.301473    1.470533    0.138459
C       0.110666   -0.005162   -0.000714
C       0.776392   -0.540083    1.228669
N       2.048894   -0.842717    1.232040
O       2.342871   -1.293615    2.526201
C       1.239976   -1.250784    3.263381
C       0.193456   -0.783992    2.522414
C      -1.148339   -0.592114    2.924093
N      -2.253010   -0.425801    3.229334
H       0.570180    2.101923    0.332660
H      -0.774924    1.815571   -0.784616
H      -1.015552    1.610371    0.954908
H      -0.774624   -0.615323   -0.213580
H       0.802395   -0.130775   -0.837893
H       1.323258   -1.576946    4.288555
