18

C       0.399508    1.389045   -0.051568
C       0.163584   -0.113769    0.123103
C      -1.246976   -0.528744   -0.250690
C      -1.717445   -1.947012    0.144915
C      -2.788622   -1.208840    0.964209
O      -2.250321    0.083460    0.618167
C      -4.221269   -1.333017    0.480155
O      -4.696869   -2.334718    0.012220
H       1.411358    1.668593    0.255562
H       0.271016    1.691533   -1.096681
H      -0.311439    1.959160    0.553047
H       0.863427   -0.687346   -0.499465
H       0.351157   -0.406269    1.163850
H      -1.454827   -0.267259   -1.297737
H      -2.112635   -2.578284   -0.651263
H      -0.994884   -2.510701    0.737130
H      -2.777335   -1.379445    2.051741
H      -4.805103   -0.391101    0.587909
