18

N      -0.137677    1.269140    0.124373
C       0.001493    0.008790    0.039388
C       1.212397   -0.923525   -0.087207
N       0.683059   -2.288346   -0.138680
C      -0.594103   -2.183097   -0.058662
N      -1.065179   -0.879440    0.046518
C      -1.545110   -3.310781   -0.071638
C      -1.211868   -4.529552   -0.914171
C      -1.125724   -4.619359    0.574886
H       0.770881    1.730094    0.100265
H       1.789978   -0.693534   -0.991031
H       1.892218   -0.799305    0.764722
H      -2.026043   -0.590592    0.121585
H      -2.590707   -3.033097    0.005527
H      -2.033346   -5.021802   -1.422179
H      -0.282010   -4.476082   -1.467526
H      -0.138068   -4.626065    1.020080
H      -1.886771   -5.174608    1.111268
