17

C      -0.137146    1.577461   -0.022323
C      -0.034256    0.064436   -0.008048
C       1.243870   -0.601504   -0.590634
O       2.019247   -0.103141    0.562064
C       0.762374   -0.616003    1.144588
C       0.940344   -1.889695    0.265299
O      -0.230679   -2.624676    0.013215
C       2.074944   -2.751979    0.552621
C       2.949681   -3.554887    0.741698
H       0.815514    2.034154    0.253278
H      -0.421443    1.936051   -1.017433
H      -0.905082    1.919164    0.679807
H      -0.969343   -0.431499   -0.272918
H       1.699888   -0.521929   -1.578373
H       0.640206   -0.550696    2.226228
H       0.026602   -3.458202   -0.393524
H       3.740389   -4.239862    0.925591
