16

C       0.054604   -1.226727   -0.061250
C       0.031409   -0.026252   -0.026823
C       0.001284    1.429773    0.018615
C      -0.235353    2.103865    1.451946
C       1.119766    2.796433    1.310264
N       2.119988    1.708403    1.193331
C       1.381465    2.155674   -0.001009
C      -0.899981    1.980782   -0.987657
C      -1.628315    2.462339   -1.813233
H       0.080942   -2.287719   -0.092018
H      -1.091465    2.777377    1.428104
H      -0.316603    1.398085    2.279725
H       1.398717    3.778743    1.668617
H       3.042970    2.139322    1.147899
H       1.881845    2.513794   -0.891351
H      -2.278257    2.871085   -2.546821
