19

C       0.032596    1.532782    0.231854
C      -0.118549    0.036478   -0.073044
C       0.682250   -0.445787   -1.265873
C       0.944016   -1.963525   -1.450457
O       2.378888   -1.755199   -1.527820
C       2.226329   -0.338350   -1.389672
C       2.045690    0.460606   -2.716383
O       1.286091   -0.354355   -3.610364
C       0.576084    0.356964   -2.598085
H       1.077300    1.793792    0.431452
H      -0.311326    2.156109   -0.599517
H      -0.552135    1.808032    1.114290
H       0.181713   -0.544048    0.807979
H      -1.179405   -0.196032   -0.242992
H       0.682445   -2.571391   -0.575486
H       0.547585   -2.419891   -2.361326
H       2.878384    0.114219   -0.637163
H       2.682306    1.218717   -3.159557
H      -0.214064    1.025024   -2.923681
