18

O      -0.019771   -0.029534    0.334411
C       0.024730    1.152895    0.068743
C      -1.274389    1.955765   -0.018536
C      -1.310941    3.294616   -0.788538
C      -0.680503    3.237471   -2.158872
C       0.602470    2.958020   -2.397001
C       1.636533    2.643423   -1.377608
N       1.536886    3.229742   -0.034842
C       1.367899    1.776601   -0.165859
H      -2.009236    1.253650   -0.425735
H      -1.581375    2.138342    1.020350
H      -2.360724    3.589739   -0.882243
H      -0.813215    4.062643   -0.193706
H      -1.324582    3.436194   -3.011463
H       0.955498    2.929953   -3.424436
H       2.638866    2.520482   -1.781391
H       2.460696    3.437603    0.333407
H       2.176057    1.117853    0.141760
