18

C      -0.012928    0.932069    0.170343
O      -0.479846   -0.166717   -0.601368
C       0.483659   -0.666561   -1.464906
C       1.578323   -1.559594   -0.890960
O       1.586720   -1.816526    0.476431
C       0.461915   -2.168237   -1.704276
O      -0.393677   -2.954057   -0.940742
C      -1.753687   -2.898946   -1.354341
H       0.839265    0.639537    0.792865
H       0.278563    1.775013   -0.473518
H      -0.843619    1.246001    0.806893
H       0.734585   -0.022287   -2.311004
H       2.578362   -1.507834   -1.310907
H       0.790025   -2.336722    0.652952
H       0.648980   -2.536965   -2.713405
H      -2.144974   -1.879407   -1.282961
H      -1.863913   -3.262532   -2.385639
H      -2.312197   -3.557909   -0.685672
