25

C      -0.005088    1.541614   -0.009284
C      -0.009926    0.002434    0.000590
C      -1.472032   -0.482253    0.093992
C       0.637130   -0.521291   -1.306185
C       0.914852   -2.028609   -1.278992
C       1.937252   -2.400474   -0.193102
C       1.672570   -1.713617    1.147980
C       2.233498   -0.332794    1.399058
C       0.747835   -0.512842    1.226362
H       1.015222    1.933628   -0.066234
H      -0.564976    1.930485   -0.867834
H      -0.466696    1.943914    0.899514
H      -2.052037   -0.147519   -0.773253
H      -1.541201   -1.572721    0.146665
H      -1.955058   -0.079692    0.991023
H      -0.020069   -0.270012   -2.147401
H       1.578627    0.014601   -1.489121
H      -0.021769   -2.570144   -1.102552
H       1.279674   -2.360056   -2.257753
H       1.936861   -3.486359   -0.051026
H       2.944857   -2.144095   -0.544880
H       1.656901   -2.378320    2.006364
H       2.611205   -0.088666    2.386374
H       2.796480    0.123331    0.589720
H       0.170964   -0.428370    2.144854
