13

O       0.076249    1.408406    0.044615
C       0.063550    0.010118    0.037150
C      -1.405536   -0.545588    0.021641
C      -2.092652   -0.052052   -1.180328
N      -2.578627    0.386473   -2.132003
C      -1.429644   -1.999815    0.103651
C      -1.395333   -3.202216    0.195491
C      -1.363577   -4.564118    0.298349
N      -1.333418   -5.721306    0.388385
H      -0.174776    1.728064   -0.829893
H       0.610728   -0.423517   -0.809409
H       0.533713   -0.326858    0.964021
H      -1.915860   -0.120557    0.895935
