18

C       0.151778    1.579393   -0.113871
C       0.079227    0.058547   -0.008202
C       0.622103   -0.700582   -1.249912
C       1.193239   -2.000453   -0.713044
O       2.467532   -1.822005   -0.080095
C       1.318055   -1.931247    0.750930
C       0.801698   -0.573445    1.243780
C       1.884146    0.246730    1.790840
N       2.720217    0.907286    2.238182
H       1.186715    1.919453   -0.214093
H      -0.407202    1.924625   -0.989386
H      -0.275385    2.065291    0.768887
H      -0.971854   -0.230369    0.106745
H      -0.172558   -0.875673   -1.980979
H       1.415391   -0.135871   -1.751174
H       1.070298   -2.939211   -1.246899
H       1.287679   -2.792614    1.412914
H       0.074147   -0.720649    2.049451
