16

N      -0.712591   -1.058080    0.310572
C      -0.420218    0.053687    0.192147
C      -0.096852    1.465283    0.040174
C      -1.117580    2.291869   -0.720104
C      -1.247687    1.854277   -2.163810
C      -2.276995    0.900175   -2.595096
O      -2.415115    2.301823   -2.846214
C       0.809324    2.072447    1.036519
O       1.279040    1.726703   -0.262953
H      -2.093733    2.219252   -0.229116
H      -0.800193    3.339157   -0.680006
H      -0.329094    1.919134   -2.747576
H      -2.103880    0.281516   -3.473344
H      -2.965569    0.485533   -1.860924
H       0.714108    3.138072    1.237321
H       1.194207    1.464043    1.851785
