23

C       1.008071   -2.870175    4.286435
C       0.879411   -2.712608    2.790959
N      -0.228125   -1.873573    2.317053
C       1.155805   -1.454596    2.029429
C       1.608213   -0.120122    2.584515
C       0.576615    0.985198    2.459139
C       2.622700   -0.049954    3.682451
N       2.988614    0.327875    2.322712
C       3.910470   -0.556246    1.624809
H       0.798049   -1.929930    4.799836
H       0.292246   -3.617691    4.645383
H       2.012053   -3.207206    4.566362
H       1.070725   -3.629841    2.232632
H      -0.661858   -2.266943    1.487000
H       1.485712   -1.613377    1.002137
H      -0.324972    0.733349    3.023059
H       0.988121    1.928599    2.825542
H       0.286938    1.126940    1.411429
H       2.584726    0.757646    4.410589
H       3.021215   -0.986173    4.067223
H       3.806248   -1.622774    1.880827
H       3.775522   -0.448958    0.543056
H       4.934096   -0.250358    1.864373
