15

C      -0.115723    1.652743    0.081115
C       0.060097    0.139692    0.012362
O       0.963138   -0.199794   -1.046587
C       1.641433   -1.352394   -0.624360
O       1.752484   -1.269491    0.799584
C       0.808506   -0.410033    1.254640
O       0.633850   -0.142549    2.402895
C      -1.216618   -0.570082   -0.128533
C      -2.252056   -1.167708   -0.246925
H       0.863864    2.134351    0.125060
H      -0.654429    2.008931   -0.799018
H      -0.681461    1.906776    0.979773
H       1.092710   -2.270663   -0.876231
H       2.642439   -1.359669   -1.059889
H      -3.172066   -1.689716   -0.348902
