16

C       0.276981    0.904806    0.954305
C      -0.061498   -0.007445   -0.198323
O       0.531368   -0.035747   -1.247215
C      -1.257089   -0.959848    0.013226
O      -1.064662   -1.730684    1.171373
C      -2.354734   -1.962048    1.724383
C      -3.175453   -0.792893    1.225454
N      -4.306092   -0.436300    1.642925
O      -2.449315   -0.197007    0.227200
H       1.140235    1.518581    0.697825
H      -0.581889    1.542957    1.186831
H       0.484298    0.307947    1.847636
H      -1.384003   -1.579527   -0.886312
H      -2.782021   -2.911188    1.370590
H      -2.284794   -1.985955    2.812608
H      -4.657241    0.370728    1.126108
