18

C       0.041448    1.470431   -0.003219
C       0.040126   -0.031656   -0.059119
C       0.531933   -0.956453   -1.195229
O       1.884162   -0.933236   -1.582800
C       0.044576   -1.943963   -0.121091
C       0.553366   -1.034026    1.055433
C      -0.816587   -1.061136    1.758549
C      -1.154750   -1.008833    0.255979
H       1.054445    1.862372   -0.146347
H      -0.590926    1.892918   -0.792007
H      -0.330023    1.839414    0.959174
H      -0.047632   -0.925211   -2.124302
H       2.426507   -1.006209   -0.789790
H       0.028957   -3.034923   -0.127708
H       1.545912   -1.049126    1.511915
H      -1.077344   -1.982354    2.289294
H      -1.084978   -0.186736    2.360203
H      -2.129877   -0.997524   -0.234047
