19

C       0.131912    1.580778    0.000814
C      -0.020689    0.054042    0.013478
C       0.554381   -0.570232   -1.277337
C       0.683514   -2.087607   -1.203414
N       2.040979   -2.607484   -0.923582
C       0.979408   -2.703301    0.113128
C       1.085487   -1.803055    1.288869
C       0.615321   -0.556411    1.245459
H       1.189598    1.866693   -0.015119
H      -0.346627    2.016188   -0.882624
H      -0.324526    2.033304    0.887516
H      -1.098992   -0.168579    0.051208
H      -0.068812   -0.283082   -2.131759
H       1.552492   -0.153869   -1.451563
H       0.068959   -2.659611   -1.894095
H       2.153451   -3.517836   -1.365809
H       0.584226   -3.697601    0.313519
H       1.541658   -2.195426    2.194107
H       0.678231    0.076537    2.128516
