15

C      -0.013911    1.586750    0.058973
C      -0.028326    0.058080   -0.003119
C       0.721251   -0.477597   -1.228654
O       2.072652   -0.067338   -1.279081
C       0.662259   -2.005510   -1.304975
F      -0.597417   -2.459627   -1.233294
F       1.198408   -2.468418   -2.436401
F       1.351770   -2.549707   -0.279783
H       1.011122    1.965607    0.051573
H      -0.535837    2.020924   -0.800668
H      -0.508412    1.944109    0.966357
H       0.434193   -0.364806    0.898250
H      -1.056594   -0.316746   -0.028374
H       0.259281   -0.099004   -2.147241
H       2.522556   -0.454736   -0.518493
