25

C      -0.056684    1.562359    0.021396
C       0.049501    0.032273    0.007345
C       0.650725   -0.493314   -1.307000
C       0.847329   -2.010675   -1.251894
C       1.881536   -2.412760   -0.188612
C       1.680495   -1.720989    1.168653
C       1.676516   -2.656468    2.362466
C       2.298090   -0.351899    1.358119
C       0.798611   -0.487141    1.228144
H       0.935589    2.023270   -0.035722
H      -0.646714    1.925745   -0.827269
H      -0.535057    1.919051    0.939891
H      -0.971664   -0.374129    0.067796
H      -0.011899   -0.221156   -2.136793
H       1.611613    0.000478   -1.510156
H      -0.117718   -2.482124   -1.021395
H       1.156718   -2.396830   -2.229643
H       1.843350   -3.498351   -0.044126
H       2.889316   -2.196170   -0.566073
H       2.620375   -3.211184    2.432046
H       1.544503   -2.108176    3.301098
H       0.866475   -3.392380    2.288999
H       2.707708   -0.098698    2.331069
H       2.852940    0.071055    0.525982
H       0.247072   -0.356248    2.157360
