19

O       0.068278    1.397258   -0.095529
C       0.069605   -0.007840    0.070889
C       0.788018   -0.467305    1.344115
C       0.544058   -1.960538    1.550224
O      -0.828198   -2.206709    1.826013
C      -1.729907   -1.818286    0.812405
C      -2.849815   -0.945495    1.403044
O      -2.248729    0.258171    0.864962
C      -1.364066   -0.530189    0.028012
H      -0.620011    1.734805    0.492931
H       0.605529   -0.417242   -0.795650
H       1.857335   -0.246801    1.266885
H       0.392647    0.075031    2.210471
H       0.876954   -2.534658    0.668465
H       1.089736   -2.341845    2.417185
H      -2.026660   -2.684480    0.209017
H      -3.845381   -1.119493    0.976378
H      -2.897798   -0.939215    2.495218
H      -1.739180   -0.543419   -1.003926
