16

N      -0.088061    1.259348    0.246164
C       0.004746    0.022585   -0.015690
O       1.212181   -0.544752   -0.308515
C       1.333379   -1.888010   -0.785068
C       0.171069   -2.771031   -0.394324
O      -0.068272   -2.714222    1.043327
C      -1.335047   -2.111015    0.800222
C      -1.215083   -2.187434   -0.689982
C      -1.209575   -0.833302   -0.010209
H       0.832857    1.698797    0.185280
H       1.434509   -1.878001   -1.879786
H       2.265131   -2.270543   -0.357254
H       0.324273   -3.801721   -0.727325
H      -2.143153   -2.309545    1.492986
H      -1.900347   -2.487405   -1.470093
H      -2.128525   -0.263238   -0.075640
