18

O       0.160092   -0.063758    0.118320
C       0.017512    1.134458    0.053246
C      -1.350546    1.800074    0.095835
C      -1.577651    2.636939    1.337908
C      -0.720102    2.898472    2.324776
C       0.708504    2.403348    2.427718
N       1.513316    2.795023    1.258437
C       2.431446    1.788564    0.716227
C       1.173856    2.108151    0.001671
H      -1.457063    2.447047   -0.787910
H      -2.118330    1.022151    0.018334
H      -2.579499    3.055685    1.405550
H      -1.070324    3.515674    3.147462
H       1.188542    2.839343    3.308457
H       0.708400    1.310617    2.580305
H       3.380582    2.171031    0.352806
H       2.476468    0.815085    1.200187
H       1.176401    2.761231   -0.870679
