17

C      -0.012652    1.407978    0.009308
O       0.078463    0.000265    0.001165
C      -1.191691   -0.612388    0.009611
C      -1.055965   -2.061028    0.000687
C      -0.976527   -3.262611   -0.006409
C      -0.966202   -4.705448   -0.014103
O      -1.956970   -5.394696   -0.008126
O       0.293033   -5.179292   -0.028722
C       0.399064   -6.609684   -0.037219
H       1.008202    1.794806    0.001951
H      -0.545959    1.788044   -0.876233
H      -0.529581    1.778786    0.908384
H      -1.769810   -0.309476    0.900710
H      -1.786077   -0.300126   -0.867449
H      -0.069080   -7.035963    0.853591
H      -0.086351   -7.026690   -0.923160
H       1.467439   -6.823618   -0.048718
