10

O      -0.022721   -0.001336   -0.042361
C      -0.004615    1.191587    0.006037
C       1.324210    2.010885    0.017151
C       1.371063    2.833819   -1.187656
C       1.349637    3.476206   -2.201161
C       1.378916    2.815736    1.243679
N       1.384910    3.424601    2.225095
H      -0.914666    1.821757    0.025410
H       2.141195    1.280432    0.028543
H       1.354022    4.053636   -3.093354
