21

C       0.159441    1.484130    0.149545
C       0.166372   -0.027792    0.012369
O       0.646397   -0.589543    1.233087
C       0.685799   -2.007671    1.252818
C       2.146067   -2.513991    1.024055
O       2.975244   -1.713731    0.223875
C       2.354922   -2.515464    2.566144
C       0.807177   -2.457111    2.738602
O       0.246973   -1.605072    3.695617
H       1.168722    1.864916    0.332237
H      -0.219622    1.943176   -0.768151
H      -0.480030    1.793811    0.981175
H      -0.848193   -0.404960   -0.186773
H       0.809092   -0.345991   -0.819211
H      -0.124061   -2.424530    0.642804
H       2.168748   -3.519834    0.596637
H       2.863568   -0.811218    0.546889
H       2.894579   -3.352503    3.013360
H       2.811893   -1.577973    2.898573
H       0.381219   -3.453724    2.887680
H       0.267606   -0.723239    3.300026
