18

O       0.419113    1.013476    0.583654
C       0.058677   -0.068530   -0.255444
C      -1.392044   -0.494534   -0.080004
C      -1.695334   -1.887259    0.337304
N      -1.864294   -0.768629    1.281771
C      -2.444589    0.261189   -0.913598
O      -3.749260   -0.066164   -0.491000
C      -2.212518    1.719332   -0.869546
C      -2.030789    2.908947   -0.834505
H      -0.138269    1.762232    0.334862
H       0.248336    0.157857   -1.316687
H       0.721776   -0.893846    0.022888
H      -2.624862   -2.352394    0.025584
H      -0.858373   -2.565946    0.476915
H      -1.093055   -0.691071    1.939398
H      -2.360646   -0.063638   -1.958929
H      -3.690930   -0.105305    0.478629
H      -1.899924    3.963593   -0.820002
