14

O      -0.419361    0.164362    0.007612
C      -0.060357    1.307784    0.009892
N       1.253722    1.763389   -0.001257
C       2.409982    0.985525   -0.016707
O       2.476377   -0.210629   -0.023319
O       3.469553    1.831340   -0.023331
C       4.749546    1.164706   -0.039553
C       5.796000    2.171212   -0.041118
C       6.686276    2.976272   -0.042828
H      -0.755514    2.170984    0.020818
H       1.400130    2.762219    0.002218
H       4.825469    0.511219    0.835886
H       4.810122    0.524674   -0.926092
H       7.474283    3.688624   -0.044135
