19

C       0.248170    1.581341    0.022823
C       0.072306    0.072689    0.049180
C       0.906592   -0.808028   -0.936008
C       1.412156   -1.682417    0.243269
C       2.707514   -1.175034    0.882106
O       1.996684   -0.163880    1.637886
C       0.704463   -0.703339    1.246007
C      -0.126682   -1.075657    2.363285
C      -0.845480   -1.389260    3.275542
H       1.297210    1.847448    0.177683
H      -0.076949    1.991517   -0.939240
H      -0.341256    2.062209    0.810575
H      -0.987713   -0.192543   -0.015417
H       0.308744   -1.342145   -1.676912
H       1.705235   -0.273512   -1.459370
H       1.224084   -2.753746    0.212626
H       3.198267   -1.893017    1.551707
H       3.454494   -0.739299    0.207777
H      -1.471743   -1.663808    4.088186
