17

C       0.152112    1.563899    0.034623
N       1.260242    0.617014   -0.116574
C      -0.105885    0.090906    0.037432
C      -0.424926   -0.661428    1.281819
C       0.440138   -0.675070    2.381897
N       0.185620   -1.312451    3.526534
C      -0.967269   -1.981297    3.616226
C      -1.896489   -2.046962    2.582162
C      -1.617139   -1.376217    1.397746
H       0.139810    2.101615    0.978595
H      -0.177176    2.139750   -0.826588
H       1.553383    0.557723   -1.087260
H      -0.596781   -0.296229   -0.854104
H       1.388851   -0.150697    2.313770
H      -1.153628   -2.493351    4.557423
H      -2.813853   -2.612652    2.702937
H      -2.317882   -1.406079    0.567708
