19

O      -0.299485    0.302136   -1.093567
C      -0.202460    1.311149   -0.459679
C      -1.197365    1.924910    0.521356
C      -0.736322    3.380141    0.642735
C      -1.553212    4.380008   -0.237080
C      -2.312577    4.831351    1.038994
C      -1.197543    4.171643    1.895445
C       0.762700    3.230466    0.367401
O       0.901236    2.108801   -0.520901
H      -2.220032    1.785435    0.167621
H      -1.099165    1.389412    1.474588
H      -0.917617    5.174803   -0.638590
H      -2.139380    3.957812   -1.057274
H      -2.476107    5.902606    1.170132
H      -3.271975    4.319836    1.151366
H      -1.499831    3.585951    2.767749
H      -0.442107    4.898528    2.212077
H       1.204765    4.102355   -0.121417
H       1.322487    3.022676    1.289340
