19

C       0.024050    1.491249    0.097648
C      -0.022319   -0.023212    0.006028
O       0.747039   -0.557106    1.081120
C       0.796197   -1.920049    1.124915
C       1.400136   -2.926296    0.109570
C       0.940836   -3.817489    1.281956
C       1.286706   -2.738073    2.355561
O      -0.014824   -2.797635    3.006803
C      -0.315160   -2.948126    1.589469
H       1.054958    1.848368    0.022896
H      -0.558865    1.938334   -0.713067
H      -0.388415    1.830057    1.051908
H      -1.057893   -0.388260    0.075687
H       0.387122   -0.369035   -0.954713
H       0.869819   -3.059722   -0.837163
H       2.478485   -2.857822   -0.057865
H       1.017974   -4.894029    1.407364
H       2.180779   -2.613174    2.965426
H      -1.351463   -3.080702    1.280215
