19

C       0.146353    1.500216   -0.154000
C       1.332177    0.587700    0.137551
C      -0.041698    0.025223   -0.020350
O      -0.748025   -0.539344    1.085513
C      -1.319993   -1.555381    0.232377
C      -0.590685   -1.002503   -1.003973
C      -1.315627   -0.634053   -2.310250
O      -0.435471   -1.467308   -3.090544
C       0.293516   -1.872178   -1.914744
H      -0.226145    2.113699    0.659243
H       0.073894    1.953196   -1.137698
H       2.061958    0.423349   -0.648903
H       1.739816    0.600842    1.142607
H      -1.022057   -2.565006    0.541296
H      -2.414793   -1.493495    0.198919
H      -2.361695   -0.962339   -2.373441
H      -1.255345    0.421806   -2.603589
H       1.351388   -1.583894   -1.962888
H       0.226620   -2.953868   -1.737270
