11

O       0.066113    1.359839    0.069889
C       0.065287    0.019955    0.059211
N       0.096910   -0.667940   -1.059077
O       0.084653   -2.003421   -0.671068
C       0.045556   -2.067011    0.681599
C       0.031444   -0.808627    1.209802
C       0.027307   -3.342963    1.277178
C       0.011536   -4.429963    1.792496
H       0.092837    1.662070   -0.848246
H       0.001871   -0.518328    2.245106
H      -0.002335   -5.390707    2.245754
