23

C       0.109443    1.599304    0.124488
C      -0.092108    0.081040    0.042901
C       0.689492   -0.544714   -1.108458
C       2.219232   -0.627496   -1.031398
O       3.060777    0.058700   -0.521412
C       2.235128   -2.008633   -1.697073
C       0.697535   -2.100140   -1.399113
C       0.426156   -2.943920   -0.150593
C      -0.180532   -2.542959   -2.565558
H       1.168936    1.838878    0.246424
H      -0.245491    2.094580   -0.786419
H      -0.440400    2.023197    0.970309
H       0.217071   -0.376899    0.989136
H      -1.158592   -0.149204   -0.078434
H       0.437240   -0.025689   -2.045217
H       2.458700   -1.932498   -2.766984
H       2.893458   -2.759941   -1.252940
H       1.076046   -2.660053    0.683999
H      -0.611268   -2.840652    0.184288
H       0.604994   -4.004063   -0.361156
H      -0.014718   -3.598901   -2.808079
H      -1.243811   -2.423101   -2.327291
H       0.028113   -1.956048   -3.466615
