19

C      -0.118042    1.542471   -0.046910
C      -0.001846    0.057304    0.050072
C       0.036395   -1.024199   -1.027208
C       1.324602   -1.627317   -0.468082
C       0.924813   -0.950787    0.869843
C      -0.363900   -1.709006    1.301860
O      -0.956375   -1.255588    2.508159
C      -1.011916   -1.091174    0.072435
O      -2.351996   -1.095828   -0.241707
H       0.789348    2.002519   -0.455988
H      -0.951578    1.810646   -0.705569
H      -0.308546    2.008112    0.928289
H      -0.275911   -0.920379   -2.059620
H       1.443702   -2.717354   -0.463684
H       2.209536   -1.165245   -0.914841
H       1.658688   -0.680511    1.627728
H      -0.310028   -2.799445    1.391439
H      -0.912354   -0.291379    2.505949
H      -2.830269   -0.926053    0.579441
