21

C      -0.019785    1.472394    0.018538
C       0.036593   -0.044722   -0.018505
O       0.675029   -0.439306   -1.217935
C       0.781605   -1.820130   -1.356378
C       1.478005   -2.183731   -2.662791
O       1.871555   -1.352585   -3.448174
C       1.635641   -3.649509   -2.895673
C       1.563246   -4.135455   -4.336079
C       2.881173   -4.103890   -3.642787
H       0.988742    1.893363   -0.016949
H      -0.580083    1.855189   -0.838859
H      -0.508783    1.812993    0.936073
H       0.590511   -0.434963    0.852587
H      -0.979289   -0.473187    0.029664
H       1.353639   -2.278021   -0.526376
H      -0.208155   -2.316216   -1.348171
H       1.246526   -4.308096   -2.126130
H       1.083263   -5.091170   -4.511914
H       1.370762   -3.367812   -5.076753
H       3.571261   -3.314987   -3.919098
H       3.333601   -5.037232   -3.328353
