17

C      -0.149664    1.495432    0.043545
C       0.061076    0.015400    0.012092
N       0.577481   -0.545381   -1.057209
O       0.642028   -1.920845   -0.766181
C       0.160326   -2.123310    0.469842
C      -0.232285   -0.940235    1.025542
N       0.227557   -3.414090    0.955046
C      -0.962568   -4.043616    1.519385
C      -0.403363   -4.506102    0.216628
H       0.412923    1.952994    0.863878
H       0.179721    1.939914   -0.897522
H      -1.206659    1.737678    0.195403
H      -0.648751   -0.776144    2.004738
H      -0.794599   -4.619046    2.424140
H      -1.888104   -3.474064    1.492811
H      -0.948213   -4.249032   -0.687063
H       0.179262   -5.419920    0.164419
