19

C      -0.075542   -1.207265   -0.149001
C      -0.063262   -0.011110   -0.030275
C      -0.016189    1.441028    0.109564
C       1.398145    2.002383    0.034316
C       2.279313    1.944321   -1.264790
C       3.079732    3.045505   -0.487156
C       1.681875    3.547202    0.010696
C       3.534715    2.238791    0.738816
C       2.439177    1.557127    1.079081
H      -0.096889   -2.263494   -0.253887
H      -0.634629    1.902775   -0.670883
H      -0.470141    1.730827    1.067213
H       2.790308    1.004241   -1.481030
H       1.762862    2.325205   -2.152781
H       3.793408    3.705147   -0.978818
H       1.109642    4.078156   -0.758092
H       1.646107    4.079758    0.964243
H       4.518674    2.246683    1.185674
H       2.268670    0.844102    1.873140
