16

O      -0.039297    1.402023   -0.052181
C      -0.014698   -0.003362   -0.078149
C       0.828488   -0.528876    1.008984
N       1.529097   -0.896514    1.851960
C      -1.372150   -0.687142   -0.119640
C      -1.799238   -0.763045   -1.589165
C      -0.703686   -0.100670   -2.423019
C       0.289569   -0.753202   -1.428437
C      -0.839302   -1.779597   -1.025683
H       0.860777    1.732464    0.049955
H      -2.077392   -0.773475    0.695137
H      -2.843915   -0.901804   -1.834919
H      -0.624729   -0.562281   -3.410314
H      -0.685868    0.989311   -2.504864
H       1.316919   -0.984030   -1.698743
H      -0.864775   -2.853097   -0.925407
