18

C       0.000593    1.475598   -0.167341
C       0.001864   -0.053693    0.018572
C       0.748117   -0.451229    1.217097
C       1.340559   -0.798624    2.205336
C      -1.414522   -0.620552    0.070097
C      -2.063174   -1.156696   -1.190208
C      -1.615571   -2.103054   -0.114671
O      -0.506745   -2.903568   -0.405615
H       1.020790    1.862238   -0.236408
H      -0.537261    1.739025   -1.082664
H      -0.492434    1.968399    0.675979
H       0.508544   -0.505499   -0.842411
H       1.873940   -1.090337    3.076110
H      -2.060988   -0.129681    0.792829
H      -3.125497   -1.001948   -1.341406
H      -1.467555   -1.148933   -2.097197
H      -2.384638   -2.588043    0.486101
H       0.070270   -2.889549    0.367960
