15

O      -0.092512    1.367590    0.019211
C       0.061798   -0.006769    0.005155
C       1.046514   -0.826026    0.869001
N       0.841203   -1.951875   -0.112289
C      -0.636166   -2.216257   -0.071989
C      -0.948572   -1.490103   -1.346686
C      -1.251451   -0.823792   -0.012019
C       0.483124   -0.927873   -1.209350
H       0.778358    1.773596   -0.049444
H       2.080962   -0.470260    0.799157
H       0.793755   -1.052799    1.909067
H      -1.062732   -3.112114    0.360083
H      -1.578024   -1.749949   -2.185587
H      -2.199816   -0.579257    0.445467
H       1.219088   -0.706704   -1.980589
