20

C      -0.053729    1.459251   -0.096246
O       0.117355    0.055299   -0.022458
C       0.714111   -0.557880   -1.158040
C       2.140714   -0.085869   -1.410817
C       0.486430   -2.098761   -1.027274
C      -0.578577   -2.057697   -2.168481
C      -0.226421   -0.600614   -2.369194
N      -0.491750    0.303776   -3.215564
O      -1.399736   -0.159453   -4.186490
H       0.901098    1.998524   -0.028188
H      -0.562022    1.758469   -1.021489
H      -0.672050    1.740706    0.759877
H       2.739767   -0.210461   -0.502732
H       2.598524   -0.669515   -2.214398
H       2.169688    0.964943   -1.711207
H       1.371742   -2.689490   -1.269783
H       0.113454   -2.383419   -0.043468
H      -0.398613   -2.696180   -3.037306
H      -1.608520   -2.218718   -1.836859
H      -1.492670    0.608203   -4.761114
