13

O      -0.459328    1.012243   -0.966559
C       0.030217    1.016789    0.128773
C       1.167155    1.966943    0.529473
O       1.946511    1.633037    1.389381
C       1.269170    3.329372   -0.176600
O       0.259113    3.916969   -0.474564
C       2.653797    3.861770   -0.388262
C       2.962528    4.483183   -1.698421
O       2.757651    5.272758   -0.543891
H      -0.214299    0.277934    0.920556
H       3.447276    3.383769    0.179694
H       3.984487    4.430731   -2.069873
H       2.172735    4.535560   -2.445445
