16

C      -0.160819    1.416048    0.062591
C       0.077981   -0.076265    0.110666
C       1.455849   -0.580354   -0.244808
C       0.984808   -0.628590    1.211767
C       1.013060   -2.140493    1.071028
C       0.571824   -3.437321    1.180373
N       0.805603   -4.042541   -0.034671
N       1.286114   -3.188635   -0.904523
N       1.476113   -2.055773   -0.198876
H       0.732687    1.974883    0.359831
H      -0.435701    1.732331   -0.948386
H      -0.973244    1.699521    0.738704
H      -0.763401   -0.695298   -0.189629
H       2.244693   -0.009570   -0.713954
H       1.336106   -0.034214    2.042722
H       0.152307   -3.991798    2.002517
