21

C      -0.436930    1.453640   -0.178276
C       0.286123    0.133803    0.111300
C       0.904600   -0.472391   -1.130880
C       1.183517   -1.933637   -1.229262
O       0.856592   -2.716847   -0.137837
C       0.618060   -4.072762   -0.476434
C       0.068226   -1.330826   -2.096970
C      -1.305011   -1.619748   -1.817260
C      -2.466063   -1.861933   -1.609289
H       0.241520    2.192171   -0.620336
H      -1.265572    1.298395   -0.875842
H      -0.845653    1.885712    0.740381
H       1.081262    0.297395    0.849610
H      -0.405433   -0.583937    0.558725
H       1.624631    0.170169   -1.632524
H       2.076654   -2.259851   -1.766665
H      -0.228137   -4.169158   -1.167388
H       1.507863   -4.531160   -0.933771
H       0.388046   -4.596364    0.453926
H       0.301592   -1.221445   -3.152558
H      -3.488655   -2.075986   -1.421275
