20

C       0.063725    1.582872    0.149503
C       0.030991    0.057139    0.042834
C      -1.391625   -0.464099   -0.115133
O       0.780226   -0.345378   -1.137671
C       2.052249   -0.731965   -0.822597
N       2.918039   -1.106572   -1.661702
C       2.243744   -0.656654    0.674382
C       0.801625   -0.637959    1.195571
O       0.589617    0.062838    2.404119
H       1.086112    1.956701    0.248184
H      -0.375075    2.019818   -0.751601
H      -0.503032    1.917098    1.020850
H      -1.894523    0.022176   -0.955658
H      -1.388099   -1.543118   -0.292991
H      -1.962968   -0.260417    0.795426
H       2.538001   -1.056309   -2.609123
H       2.854125   -1.485012    1.036463
H       2.746449    0.279124    0.942704
H       0.430494   -1.670607    1.278843
H       0.992995   -0.437678    3.119492
