13

N      -0.097899    1.357720    0.152861
C       0.063543   -0.014428    0.047210
N      -1.006169   -0.823859    0.020510
N      -0.498900   -2.067547   -0.004345
C       0.848263   -2.056155   -0.007742
C       1.273844   -0.744759    0.027793
N       1.582934   -3.282796   -0.040528
O       0.921077   -4.321100   -0.059629
O       2.804260   -3.210642   -0.047946
H       0.600371    1.899176   -0.335633
H      -1.034417    1.657787   -0.082086
H      -1.088600   -2.883339   -0.026018
H       2.290255   -0.392306    0.046526
