14

C      -0.105858    1.584107    0.013805
C       0.016625    0.052628   -0.011563
C       0.823525   -0.504800   -1.160939
C       1.853240   -1.285134   -0.793751
C       1.929434   -1.391389    0.674241
O       2.701332   -2.012212    1.362016
C       0.765895   -0.500394    1.206208
O       0.532005   -0.277120    2.361715
H       0.880431    2.057769   -0.000927
H      -0.671418    1.945571   -0.850016
H      -0.621713    1.896300    0.925131
H      -0.995780   -0.375982   -0.017303
H       0.568221   -0.270644   -2.190219
H       2.550857   -1.782063   -1.455672
