13

N       0.082856    1.328683    0.111936
C      -0.050735   -0.015865    0.039897
C      -1.226839   -0.720432    0.021139
C      -1.091956   -2.126901   -0.014581
N       0.038764   -2.778476   -0.030161
C       1.207849   -2.056012   -0.010735
N       2.398583   -2.483985   -0.018626
O       1.127356   -0.633625    0.018073
H       0.995210    1.716141   -0.066127
H      -0.717184    1.909602   -0.068469
H      -2.186869   -0.226204    0.038526
H      -1.995473   -2.736545   -0.032306
H       2.362475   -3.501605   -0.042219
