11

O      -0.502992    0.617098    0.762420
C       0.049983    1.036492   -0.218075
C       1.352176    1.813080   -0.205821
C       1.240326    3.109297   -1.038696
C       2.521178    3.799420   -1.162740
N       3.542041    4.332673   -1.253067
H      -0.372414    0.865291   -1.236615
H       1.635368    2.023756    0.827469
H       2.125708    1.171988   -0.648797
H       0.868796    2.883059   -2.045452
H       0.516919    3.793301   -0.581208
