18

C       0.288625    1.416372    0.262176
C       0.187320   -0.076576   -0.066297
C       0.602500   -0.431727   -1.516097
C      -0.296654    0.196027   -2.578703
O       1.931260   -0.015336   -1.801626
C       0.527418   -1.964971   -1.635663
O      -0.418331   -2.596874   -2.023846
C       1.759640   -2.663885   -1.182617
N       2.704458   -3.200953   -0.786559
H       1.280294    1.805661    0.017120
H      -0.449417    2.003481   -0.290690
H       0.110632    1.579284    1.328691
H       0.830150   -0.643853    0.621986
H      -0.833237   -0.439379    0.100387
H      -0.285331    1.282862   -2.483866
H       0.069420   -0.064362   -3.574701
H      -1.319558   -0.170192   -2.477914
H       2.511615   -0.271628   -1.074652
