17

C      -0.005956    1.461785    0.021929
C      -0.018400   -0.039034   -0.063999
N       0.967262   -0.663041   -0.917083
C       0.562345   -1.863790   -1.131703
N       1.201958   -2.784621   -1.921242
C      -0.673572   -2.203181   -0.314655
O      -0.132233   -2.225597    1.060217
C      -0.472622   -0.851390    1.181662
C      -1.317230   -0.820544   -0.061234
H       0.969867    1.818140    0.365354
H      -0.201334    1.907990   -0.958906
H      -0.768563    1.824750    0.719010
H       2.163273   -2.559805   -2.136830
H       1.050228   -3.755393   -1.697411
H      -1.254606   -3.098121   -0.538222
H      -0.579119   -0.446989    2.181999
H      -2.317173   -0.471867   -0.285294
