16

C      -0.203819    1.325176    0.087325
O      -0.172554   -0.100697    0.276089
C       0.884961   -0.571557    0.940657
O       1.781986    0.100174    1.379725
C       0.857186   -2.096630    1.077836
C       1.343940   -2.524598    2.493061
O       1.501543   -3.916100    2.592913
C      -0.438038   -2.709052    0.789814
N      -1.440899   -3.260596    0.629838
H       0.665574    1.650727   -0.488222
H      -1.125286    1.526755   -0.456853
H      -0.204132    1.835396    1.052952
H       1.586077   -2.490601    0.358116
H       2.321895   -2.068927    2.654136
H       0.650780   -2.125033    3.246438
H       0.629600   -4.326327    2.560607
