18

C       0.085794    1.460355    0.137837
C       0.068829    0.005607    0.069068
C       0.037671   -1.199823    0.022800
C       0.016622   -2.635336   -0.042163
C      -0.556745   -3.420192    1.143202
C      -1.336404   -3.351553   -0.121171
C       1.137930   -3.350598   -0.772509
N       2.084117   -2.542311   -1.312653
O       1.168677   -4.566367   -0.856984
H       0.999093    1.830429    0.617007
H       0.024843    1.911947   -0.858669
H      -0.764328    1.833061    0.719956
H      -0.044927   -4.348643    1.365206
H      -0.882521   -2.832874    1.992850
H      -2.212193   -2.715803   -0.163518
H      -1.348902   -4.233852   -0.749390
H       2.025867   -1.542422   -1.223886
H       2.849702   -2.965914   -1.808580
