19

O      -0.271207    0.403388    0.711449
C       0.018622    1.258413   -0.081498
C       1.382693    1.924837   -0.139468
O       1.371943    2.856934   -1.189132
C       2.594782    3.549382   -1.349398
C       2.436604    4.536519   -2.487647
C       1.568159    5.774203   -2.176016
O       2.721765    6.642775   -2.197056
C       3.579472    5.566388   -2.623394
H      -0.694090    1.637736   -0.846597
H       1.586509    2.400028    0.835317
H       2.151405    1.146495   -0.283125
H       2.857972    4.081745   -0.419224
H       3.412673    2.840174   -1.562730
H       2.171886    4.004872   -3.403746
H       0.840373    6.041799   -2.951966
H       1.066163    5.772390   -1.201226
H       4.436779    5.429454   -1.950941
H       3.952731    5.715231   -3.644547
