19

C      -0.021121    1.530358    0.351488
C       0.062552    0.128001   -0.264443
C      -1.292953   -0.582798   -0.233339
C      -1.945762   -1.473060   -1.287200
C      -0.987837   -2.553018   -1.872411
O       0.326001   -2.406248   -1.303596
C      -0.689655   -3.073744   -0.545231
C      -1.645465   -2.008029    0.104610
O      -2.569717   -2.376607    1.064113
H       0.951427    2.031632    0.325115
H      -0.735648    2.161101   -0.189551
H      -0.344997    1.488867    1.397954
H       0.420888    0.199543   -1.294791
H       0.811166   -0.464781    0.267795
H      -2.080486    0.046785    0.184968
H      -2.907043   -1.238191   -1.725548
H      -1.064141   -3.041958   -2.835626
H      -0.496977   -4.076437   -0.181385
H      -2.184015   -2.215646    1.932940
