17

C       0.562525    1.417532    0.097598
C       0.096944    0.006588   -0.083831
C      -0.003327   -0.635009   -1.246941
C      -0.459691   -2.063622   -1.280949
O       0.001454   -2.832751   -0.144504
C       0.142372   -2.224953    1.034953
O       0.625969   -2.794191    1.982519
C      -0.331553   -0.773184    1.148204
O       0.135632   -0.221666    2.346676
H       1.422651    1.453784    0.772646
H       0.836071    1.867914   -0.859563
H      -0.217809    2.029298    0.565380
H       0.234054   -0.159280   -2.192810
H      -1.555945   -2.144893   -1.316181
H      -0.064154   -2.594345   -2.149712
H      -1.439437   -0.810269    1.155734
H       0.498639   -0.972669    2.844230
