19

C      -0.086174    1.585236    0.010623
C       0.019509    0.057483    0.080631
C       0.595823   -0.523721   -1.221684
C       0.920751   -2.007470   -1.180715
O       0.789259   -2.742423   -2.120491
O       1.426256   -2.508114   -0.022439
C       1.521207   -1.737448    1.159075
C       2.346926   -0.482912    1.218334
C       0.828075   -0.416549    1.274630
H       0.905256    2.039702   -0.092337
H      -0.693485    1.899246   -0.844565
H      -0.547414    1.989437    0.917328
H      -0.994268   -0.349008    0.202124
H      -0.087852   -0.375118   -2.059695
H       1.523842    0.000871   -1.484995
H       1.540469   -2.415301    2.003835
H       2.908262   -0.287336    2.125059
H       2.847737   -0.165666    0.310757
H       0.389830   -0.184571    2.241251
