20

C       0.188235    1.643950   -0.077224
C       0.027407    0.140830   -0.066304
C       1.229098   -0.765830   -0.199892
C       0.483030   -0.700803    1.106699
N       1.129878   -0.024006    2.202022
C       0.605400   -0.189712    3.529993
C       1.951801   -0.768424    3.174291
C       2.084407   -2.246413    3.124025
O       3.074502   -2.837810    3.479096
H       1.079008    1.944762    0.478416
H       0.276954    2.016763   -1.103224
H      -0.674530    2.137414    0.383892
H      -0.881282   -0.219396   -0.542076
H       1.156275   -1.669531   -0.794538
H       2.203500   -0.288938   -0.217911
H      -0.152256   -1.549769    1.360642
H       0.567498    0.693459    4.162121
H      -0.213513   -0.895081    3.676526
H       2.853960   -0.255686    3.496975
H       1.193959   -2.791786    2.741268
