15

O      -0.092879    1.475871   -0.223709
C       0.077920    0.100040    0.093938
C      -1.292101   -0.541615    0.016839
C      -2.011601   -0.847060   -1.327195
C      -1.061051   -2.037092   -1.599889
C      -1.519280   -2.073289   -0.121224
O      -2.895918   -1.779647   -0.582921
H       0.753503    1.918078   -0.110018
H       0.792881   -0.377518   -0.591113
H       0.472817   -0.028158    1.114990
H      -1.973430   -0.089410    0.741357
H      -2.482792   -0.158195   -2.027435
H      -1.488166   -2.822932   -2.223427
H      -0.012489   -1.841349   -1.831483
H      -1.398782   -2.860563    0.624231
