21

C      -1.292650    2.604555    1.302802
C      -0.849668    1.400375    0.463637
C       0.347190    0.652862    1.102930
C       1.537891    1.488096    1.240398
N       2.472810    2.160620    1.337911
C      -1.997105    0.426780    0.272059
N      -3.017824    0.792340   -0.719666
C      -2.209146   -0.420009   -0.937829
C      -1.306892   -0.441050   -2.149209
H      -0.478566    3.324002    1.427859
H      -2.129315    3.109505    0.813164
H      -1.621448    2.290319    2.300963
H      -0.535184    1.763750   -0.519102
H       0.069295    0.281194    2.097279
H       0.607971   -0.224316    0.500354
H      -2.354888   -0.001620    1.210876
H      -3.948649    0.557459   -0.387614
H      -2.703577   -1.371859   -0.743593
H      -0.857576    0.536883   -2.332878
H      -0.505413   -1.178678   -2.030372
H      -1.879535   -0.712673   -3.042276
