19

C      -0.179047    1.607003   -0.194589
C       0.006175    0.125290    0.060086
O       0.944149   -0.532905   -0.900526
C       1.806383   -0.788256    0.203947
C       2.535757   -1.802197    1.106130
C       2.157226   -0.448920    1.968097
O       2.365725   -0.245995    3.314914
C       2.707550    0.354948    0.783768
C       0.762561   -0.553449    1.280864
H       0.754843    2.168861   -0.185035
H      -0.647712    1.752795   -1.173471
H      -0.845788    2.025895    0.566547
H      -0.962466   -0.375559   -0.029682
H       1.988573   -2.706020    1.377669
H       3.603730   -1.987180    0.951872
H       3.298652   -0.048301    3.455270
H       3.779154    0.274366    0.582531
H       2.353888    1.378294    0.682721
H       0.203225   -1.439915    1.585789
