17

C      -0.191794    1.671681    0.060288
C       0.031434    0.165476   -0.015556
C      -1.287562   -0.597617   -0.238538
O      -1.115804   -2.002968   -0.150863
O       0.972177   -0.135489   -1.048382
C       1.837362   -1.134803   -0.573321
O       1.806056   -1.080259    0.855772
C       0.713976   -0.383789    1.241102
O       0.361590   -0.266163    2.379734
H       0.766862    2.194176    0.091340
H      -0.746392    2.019456   -0.816110
H      -0.757747    1.917900    0.962071
H      -2.042737   -0.233112    0.469818
H      -1.632480   -0.382186   -1.254537
H      -1.158876   -2.252807    0.778171
H       1.515237   -2.135587   -0.884333
H       2.857186   -0.925261   -0.908858
