17

C      -0.350836   -1.140364    0.177209
C      -0.169345    0.039364    0.033594
C       0.024878    1.481397   -0.145250
O      -0.685002    2.235837    0.840053
C       0.163650    2.401125    1.973721
C       1.586560    2.527385    1.407808
O       2.499276    1.485617    1.815506
C       2.592614    0.984633    0.462349
C       1.502227    1.958965   -0.025306
H      -0.519589   -2.181430    0.304194
H      -0.400629    1.772422   -1.111007
H      -0.185900    3.287935    2.507662
H       0.123003    1.530485    2.642638
H       2.025855    3.521590    1.539473
H       3.582309    1.178698    0.031591
H       2.363391   -0.082873    0.396144
H       1.770864    2.614936   -0.851889
