17

O       0.051556    0.195065   -0.681683
C      -0.048978    1.264151   -0.159546
C      -1.293593    1.947856    0.396355
C      -0.857684    3.407052    0.543280
C       0.662529    3.287559    0.717353
C       1.550694    4.496628    0.377981
O       1.917389    4.664153    1.762223
C       1.268772    3.432693    2.133987
O       1.028604    2.083871    0.037638
H      -2.145142    1.781421   -0.263960
H      -1.529599    1.483825    1.360881
H      -1.074548    3.963932   -0.374448
H      -1.327040    3.936980    1.373966
H       2.406686    4.240021   -0.257606
H       1.039118    5.378494   -0.025438
H       0.566853    3.568039    2.965374
H       1.985145    2.638414    2.376728
