18

C       0.012725    1.431797   -0.134055
N       0.048291   -0.007683    0.028474
C       0.596597   -0.620338    1.093938
C       1.219222   -0.042466    2.165908
C       1.658158   -1.074820    3.076053
O       2.057360   -1.006222    4.226394
C       1.494858   -2.435428    2.366633
O       1.019833   -3.412859    3.258049
C       0.540582   -2.131962    1.203051
H       1.024759    1.849343   -0.087781
H      -0.416175    1.672654   -1.108111
H      -0.592493    1.913543    0.644226
H      -0.444298   -0.573982   -0.640843
H       1.314695    1.015914    2.362254
H       2.482450   -2.720268    1.965063
H       1.329709   -3.115034    4.127792
H      -0.470286   -2.460160    1.470685
H       0.814033   -2.620503    0.261673
