18

N      -0.088656    1.337384   -0.379658
C       0.058649    0.079553    0.135639
O       1.143588   -0.334208    0.505513
C      -1.235118   -0.711881    0.178968
C      -1.114549   -2.273717    0.240335
C      -0.856376   -2.119315    1.773253
C      -1.884640   -0.986828    1.582691
O      -3.091750   -1.670994    1.223719
C      -2.602716   -2.638118    0.257981
H       0.712756    1.946921   -0.368997
H      -0.985959    1.722361   -0.615635
H      -1.949682   -0.318509   -0.550673
H      -0.448110   -2.827005   -0.418486
H      -1.154740   -2.940897    2.428891
H       0.151220   -1.768824    1.979833
H      -2.103251   -0.208017    2.311775
H      -3.110523   -2.492485   -0.702327
H      -2.794743   -3.656560    0.614509
