17

C      -0.071063    1.512584   -0.022442
C       0.015655   -0.007474   -0.009572
N       0.897351   -0.405501   -1.183947
C       1.642210   -1.270369   -0.640946
O       2.975786   -0.992887   -0.286675
C       2.379010   -1.026712    1.080031
C       0.794952   -0.612442    1.193723
C       1.277144   -1.938317    0.746865
N       0.821541   -3.246905    1.023026
H       0.930136    1.951128   -0.029379
H      -0.605716    1.860950   -0.909444
H      -0.605519    1.860213    0.869680
H      -0.995499   -0.440158   -0.048954
H       3.086848   -0.923834    1.894396
H       0.460655   -0.447107    2.218349
H       1.569028   -3.931162    0.970099
H       0.398264   -3.304747    1.942297
