21

O       0.580754    0.882037   -0.706530
C       0.109850   -0.225622    0.017862
C       0.139878   -0.172418    1.592968
C      -1.341833   -0.632248    1.615377
C      -2.456908    0.442546    1.752380
C      -2.448362    0.621488    0.188730
C      -1.420190   -0.533681    0.079495
C      -1.898712   -2.009221   -0.010220
C      -1.718181   -2.139020    1.549299
H       0.144514    1.671400   -0.369120
H       0.666529   -1.082135   -0.376253
H       0.876353   -0.817637    2.080713
H       0.279763    0.845927    1.974297
H      -3.400956    0.057621    2.149263
H      -2.187867    1.330729    2.332345
H      -3.403564    0.445627   -0.313680
H      -2.077213    1.592803   -0.156834
H      -2.931243   -2.124238   -0.353051
H      -1.269046   -2.670381   -0.613414
H      -0.910452   -2.812532    1.851055
H      -2.616615   -2.424001    2.104423
