23

C       0.232855    1.493236   -0.164244
C       0.063982   -0.005939    0.029414
C      -1.405595   -0.411554   -0.075218
O       0.856196   -0.760972   -0.938966
C       1.399050   -1.616194    0.094447
C       2.917803   -1.533864    0.196761
C       3.178281   -0.170596    0.865735
C       2.003477   -0.007550    1.857742
C       0.800244   -0.713637    1.206165
H       1.278949    1.799263   -0.103769
H      -0.145465    1.781952   -1.150542
H      -0.334908    2.048203    0.590350
H      -1.805356   -0.139711   -1.057301
H      -1.522806   -1.491839    0.051711
H      -2.005105    0.090567    0.692354
H       1.019506   -2.640488    0.002590
H       3.273794   -2.352160    0.835941
H       3.398057   -1.640801   -0.780185
H       4.152897   -0.116483    1.358385
H       3.154042    0.617818    0.107730
H       2.241981   -0.519408    2.797470
H       1.802466    1.037621    2.111445
H       0.133318   -1.172270    1.938404
