17

O       0.011525   -0.025352   -0.146427
C       0.002353    1.165748    0.023161
O      -1.203793    1.812502    0.110175
C      -1.264523    3.160579    0.617525
C      -0.231786    4.018158   -0.088550
C       0.490758    5.229955    0.592592
C       1.865955    4.593388    0.182317
C       1.098747    3.313315   -0.042895
C       1.225190    1.999503    0.118963
H      -2.296279    3.480761    0.455038
H      -1.069301    3.146259    1.698388
H      -0.546733    4.262764   -1.109427
H       0.266147    6.222757    0.200513
H       0.352579    5.229383    1.676598
H       2.247933    5.024778   -0.749128
H       2.674283    4.577127    0.916797
H       2.157970    1.475361    0.289676
