19

C       0.180269    1.535451   -0.128642
C       0.008717    0.027022    0.061150
O       0.538323   -0.673421   -1.064415
C       1.435952   -1.717880   -0.657326
C       2.748692   -1.609606   -1.426912
C       1.552044   -1.535128    0.840173
C       2.385386   -2.351168    1.725821
O       3.084532   -3.269629    1.356977
C       0.742477   -0.548901    1.237553
H       1.240513    1.797594   -0.183280
H      -0.302602    1.845383   -1.059051
H      -0.279651    2.085107    0.699101
H      -1.070397   -0.191846    0.154703
H       0.975097   -2.693725   -0.879257
H       3.244812   -0.659445   -1.207022
H       3.411225   -2.431826   -1.146498
H       2.552529   -1.657415   -2.501464
H       2.328020   -2.068428    2.800249
H       0.603649   -0.204320    2.256174
