17

C      -0.162465    1.528758    0.001185
C       0.043477    0.020496    0.018517
C       1.231961   -0.655027   -0.775270
C       2.191644   -0.147814    0.359687
C       0.928413   -0.678363    1.124654
C       0.993210   -1.835082    0.151858
N       0.891386   -3.088853    0.207164
O       1.053532   -3.666653   -1.081949
H       0.754249    2.103945    0.147496
H      -0.597054    1.836188   -0.956020
H      -0.866010    1.820280    0.788408
H      -0.915086   -0.483204   -0.139023
H       1.404298   -0.662077   -1.848674
H       3.116198   -0.709522    0.501816
H       2.370726    0.926301    0.400476
H       0.757662   -0.710168    2.198986
H       0.954926   -4.604270   -0.886441
