19

C      -0.142950    1.485941    0.007815
C       0.037741   -0.014729    0.028162
C       1.342474   -0.718345   -0.283978
C       2.590495    0.059126   -0.465155
C       3.154212    0.784649    0.501450
C       2.602492    0.876490    1.898379
C       1.512331   -0.139244    2.242339
O       1.297980   -0.442281    3.396997
C       0.763466   -0.786330    1.128068
H       0.794870    2.021282    0.165708
H      -0.536962    1.801222   -0.964240
H      -0.856871    1.804723    0.774528
H      -0.840273   -0.554489   -0.317476
H       1.264414   -1.622423   -0.880199
H       3.038863    0.036372   -1.454766
H       4.054424    1.357522    0.294974
H       3.389646    0.768118    2.652559
H       2.179589    1.878256    2.074647
H       0.284616   -1.705975    1.445273
