16

C      -0.101538    1.541042    0.034243
C       0.056895    0.020883   -0.034234
N       0.888946   -0.411121   -1.168472
C       1.836854   -1.099127   -0.660979
N       1.828527   -1.247722    0.723646
C       2.789919   -1.950495    1.545522
C       0.727678   -0.554317    1.221264
O       0.420996   -0.450943    2.385879
H       0.875798    2.028598    0.094352
H      -0.613050    1.906383   -0.858975
H      -0.680495    1.811282    0.921110
H      -0.934828   -0.439152   -0.133660
H       2.631745   -1.564481   -1.236734
H       2.816018   -3.018063    1.304212
H       3.795714   -1.534235    1.427367
H       2.471691   -1.826529    2.582661
