16

C      -0.026014    1.514737   -0.006045
C      -0.041230    0.017331    0.006543
C      -1.157351   -0.714216    0.167641
N      -1.100505   -2.097799    0.156168
C       0.109811   -2.717570   -0.013304
N       0.088967   -4.098265    0.054025
N       1.227374   -2.090460   -0.181397
C       1.252669   -0.690357   -0.161268
O       2.295324   -0.072843   -0.289046
H       0.634885    1.895534    0.779160
H       0.383559    1.885754   -0.951282
H      -1.026674    1.933504    0.135793
H      -2.145462   -0.290849    0.306977
H      -1.911516   -2.635527    0.414175
H      -0.700582   -4.560648   -0.374320
H       0.977278   -4.491524   -0.224216
