22

C      -0.117738    1.372572    0.347672
C      -0.027648   -0.111849   -0.013309
C      -1.344706   -0.606070   -0.620732
C       1.411841   -0.435049   -0.390840
C       0.858158   -0.849380    0.960636
C       1.267978   -2.289672    0.570952
C       2.028127   -3.143428    1.543562
C       0.760813   -2.787695   -0.729837
N       1.887267   -1.829314   -0.726602
H       0.820863    1.751740    0.762604
H      -0.361780    1.969557   -0.538031
H      -0.905298    1.538948    1.091166
H      -1.294003   -0.689629   -1.711414
H      -1.664435   -1.567578   -0.215102
H      -2.139861    0.111610   -0.393402
H       2.102444    0.360293   -0.646456
H       1.095243   -0.455312    1.942589
H       1.357313   -3.554181    2.307967
H       2.514943   -3.977102    1.029819
H       2.802783   -2.560073    2.053717
H       1.096342   -3.783813   -1.009990
H      -0.193533   -2.517827   -1.151409
