18

C      -0.141970    1.543191   -0.093104
C      -0.016225    0.033926   -0.085591
O      -1.181788   -0.617345   -0.580722
C       1.248421   -0.623155   -0.648037
N       2.058515   -0.263903    0.620310
C       2.513299   -1.721637    0.742542
C       1.088500   -1.895802    0.255513
O       0.433609   -3.075820    0.004952
C       0.649587   -0.660568    1.120077
H       0.789666    1.998822    0.250748
H      -0.367365    1.905158   -1.101088
H      -0.948642    1.871554    0.574693
H      -1.948127   -0.249125   -0.127806
H       1.699728   -0.541704   -1.638408
H       3.329582   -1.980123    0.060901
H       2.750832   -2.017142    1.769133
H      -0.442715   -2.831113   -0.322930
H       0.410812   -0.624277    2.185285
