16

C      -0.068638    1.531897   -0.072539
C       0.045156    0.027583   -0.073993
O      -1.018575   -0.654304   -0.647341
C       1.343316   -0.663254   -0.252457
C       0.717002   -0.682992    1.159790
C       1.325295    0.096172    2.200975
C       1.834643    0.757409    3.066280
C       0.089502   -1.908590    1.587033
N      -0.433213   -2.877089    1.942452
H       0.794551    1.999822    0.403286
H      -0.147349    1.890410   -1.103270
H      -0.965226    1.850193    0.471289
H      -1.819811   -0.470246   -0.142325
H       1.329873   -1.603325   -0.790433
H       2.245216   -0.071427   -0.349768
H       2.283633    1.331630    3.838866
