16

C       0.025887    1.506464    0.104748
C      -0.022990    0.003585   -0.112112
C       0.860267   -0.504191   -1.238775
C       0.830909   -2.019529   -1.201780
O       1.198407   -2.514394    0.093581
C       0.930718   -1.833256    1.230168
O       1.198594   -2.301772    2.295447
O       0.381305   -0.602800    1.137437
H       1.052653    1.834388    0.291809
H      -0.354258    2.027834   -0.778982
H      -0.586982    1.785785    0.965101
H      -1.060514   -0.307775   -0.299615
H       0.492457   -0.142160   -2.203779
H       1.884844   -0.138544   -1.105748
H      -0.170482   -2.395894   -1.448635
H       1.543435   -2.468864   -1.897167
