16

O       0.005753    0.009553    0.127663
C      -0.011244    1.202410    0.042601
C      -1.154878    2.229909   -0.014505
O      -0.830527    3.010708    1.149494
C       0.625941    3.103532    1.199684
C       1.095807    2.268568   -0.000438
N       0.749106    3.097058   -1.189053
C       0.067081    2.378933   -2.281199
C      -0.750486    3.044807   -1.232406
H      -2.176675    1.866242    0.059216
H       0.928625    4.151134    1.106061
H       0.975657    2.696826    2.154436
H       2.129983    1.931621    0.009015
H       0.168877    2.865181   -3.245813
H       0.107131    1.292580   -2.321659
H      -1.261941    3.983279   -1.422859
