22

C       0.181245    1.433489    0.133189
O      -0.161124    0.067827   -0.059232
C       0.515296   -0.567412   -1.039066
N       0.297365   -1.783215   -1.281596
C       1.030930   -2.403490   -2.326314
C       1.437202   -3.853331   -2.136151
C       0.370136   -3.504072   -3.144378
C      -1.065061   -3.880688   -2.835901
C       0.740192   -3.574792   -4.613558
H       1.233508    1.548719    0.421770
H      -0.012145    2.029010   -0.767825
H      -0.451611    1.798347    0.943062
H       1.242550    0.061178   -1.575927
H       1.737513   -1.770040   -2.870329
H       2.417457   -4.157658   -2.488982
H       1.123585   -4.315542   -1.206794
H      -1.292225   -3.744104   -1.777439
H      -1.763445   -3.259184   -3.409119
H      -1.254944   -4.926614   -3.104689
H       0.623494   -4.595638   -4.997150
H       0.098378   -2.919754   -5.214839
H       1.779270   -3.275035   -4.784311
