21

C      -0.209926    1.567846   -0.054145
C      -0.009466    0.052006    0.061425
C       0.653501   -0.539307   -1.177261
C       0.877888   -2.091953   -1.359108
C      -0.114559   -2.988113   -0.628706
C       0.541687   -1.927393   -2.896116
O      -0.219566   -2.878402   -3.575169
C      -0.157982   -0.640034   -2.471807
O      -1.207300   -0.177108   -2.836250
H       0.746765    2.085331   -0.187699
H      -0.846548    1.807171   -0.910258
H      -0.683162    1.970391    0.846468
H       0.604450   -0.179512    0.940763
H      -0.979140   -0.431397    0.222107
H       1.599787   -0.022757   -1.381983
H       1.903536   -2.414662   -1.169357
H      -1.150852   -2.683171   -0.810082
H      -0.016044   -4.020061   -0.975832
H       0.055538   -2.969041    0.451764
H       1.466659   -1.723192   -3.450438
H      -1.111420   -2.516412   -3.657395
