23

C       0.107426    1.393189    0.342097
C      -0.059130   -0.047264   -0.174861
C      -1.476679   -0.539806   -0.130895
C      -2.220239   -0.911285   -1.179968
C      -3.562709   -1.420201   -0.780403
C      -3.537659   -2.678359    0.066915
C      -3.575128   -1.324938    0.733586
C      -2.261714   -0.671837    1.176825
C      -1.526358   -1.424760    2.296115
H       1.153151    1.710194    0.280984
H      -0.494849    2.090875   -0.248297
H      -0.206461    1.485022    1.386924
H       0.309845   -0.109598   -1.204855
H       0.584541   -0.709555    0.420947
H      -1.882651   -0.891747   -2.211431
H      -4.435485   -1.208465   -1.388589
H      -4.446783   -3.269025    0.121413
H      -2.620840   -3.258703    0.076488
H      -4.482211   -1.060242    1.264922
H      -2.485961    0.336560    1.556811
H      -1.273101   -2.444276    1.988752
H      -0.597360   -0.918223    2.577871
H      -2.151996   -1.490577    3.191979
