18

O       0.051569   -0.018139   -0.564844
C       0.702526    0.551002    0.272397
C       1.197402    1.986842    0.168684
C       0.732787    2.677284   -1.080986
C       0.432576    3.972659   -1.103085
C       0.508069    4.852095    0.116537
N       0.501046    4.163616    1.412542
C      -0.573417    3.202959    1.657414
C       0.828649    2.740721    1.449020
H       0.999079    0.036737    1.215552
H       2.299153    1.905338    0.154304
H       0.647278    2.061391   -1.969675
H       0.119901    4.446301   -2.030449
H       1.422929    5.460710    0.076813
H      -0.324796    5.566165    0.118711
H      -1.003808    3.228835    2.654701
H      -1.279578    3.004518    0.853801
H       1.411300    2.448804    2.321051
