21

C      -0.028888    1.588703   -0.056254
C       0.046742    0.077991    0.049396
C       1.297367   -0.717358   -0.229553
O       2.533330   -0.050882   -0.108371
C       2.949260    0.005139    1.252338
C       4.364623   -0.460902    1.453185
C       2.314775    1.068281    2.112898
C       1.755012   -0.347300    2.104264
C       0.673063   -0.788049    1.145421
H       0.959672    2.028724   -0.200498
H      -0.632274    1.859672   -0.928739
H      -0.495525    2.049913    0.820030
H      -0.841367   -0.414464   -0.343253
H       1.313575   -1.523609   -0.957559
H       5.063666    0.173184    0.897290
H       4.637978   -0.416356    2.511428
H       4.490129   -1.491074    1.103911
H       2.863730    1.352378    3.005894
H       1.762770    1.876893    1.659623
H       1.866742   -0.940467    3.004995
H       0.098370   -1.654165    1.453038
