11

N       0.036108    1.382335    0.160552
C      -0.001048    0.003394    0.046262
N      -1.078112   -0.720773    0.036525
N      -0.593623   -2.023973    0.019720
C       0.774784   -2.120240    0.008226
O       1.498199   -3.091272    0.000709
N       1.140742   -0.758729    0.003617
H       0.628650    1.832890   -0.526755
H      -0.900200    1.766830    0.126941
H      -1.232576   -2.797546    0.045655
H       2.088983   -0.446527    0.119792
