14

N       0.577178    0.392050   -1.791634
C       0.041394    0.016459   -0.701475
N      -1.301141   -0.364286   -0.701209
C      -2.168493   -0.234071    0.372463
N      -1.759793    0.208513    1.501794
C      -3.518512   -0.638025    0.083376
C      -4.656915   -0.957827   -0.135090
C       0.850667   -0.184619    0.572519
O       1.929754    0.335730    0.692240
H       1.568183    0.575403   -1.615205
H      -1.715453   -0.413869   -1.621678
H      -2.506079    0.192721    2.191949
H      -5.664469   -1.241286   -0.321214
H       0.430536   -0.870904    1.323472
