19

C      -0.039296    1.482916   -0.076476
C      -0.027562   -0.011715   -0.026494
C      -0.070342   -0.860423   -1.060472
C       0.041086   -2.285154   -0.646894
C       1.302386   -2.686480    0.052333
C       0.134433   -2.231118    0.904026
C       0.047232   -0.759761    1.294860
C      -0.590312   -3.259350    1.679977
O      -0.529208   -4.451026    1.481140
H       0.878944    1.904137    0.352386
H      -0.131147    1.850193   -1.102014
H      -0.871651    1.893021    0.509901
H      -0.150526   -0.565251   -2.101074
H      -0.554612   -3.058051   -1.120265
H       1.517922   -3.747445    0.118337
H       2.159004   -2.024083   -0.017749
H       0.903746   -0.433045    1.899462
H      -0.847373   -0.568136    1.907151
H      -1.240760   -2.849104    2.487081
