17

C       0.277455    1.003473    0.440256
O      -0.395025    0.000352   -0.305643
C       0.371904   -0.539701   -1.311412
C       1.494209   -1.570707   -1.059290
C       1.003035   -2.521207   -0.002328
O       1.409957   -3.011775    0.999265
O      -0.217760   -2.753195   -0.617949
C       0.179525   -1.937416   -1.758277
C      -0.154754   -2.462963   -3.112600
H       1.174242    0.601153    0.929275
H       0.569728    1.850142   -0.197922
H      -0.423144    1.353238    1.200181
H       0.644674    0.156644   -2.110573
H       2.509119   -1.457803   -1.413221
H      -1.240817   -2.505574   -3.245004
H       0.258360   -1.810740   -3.886865
H       0.248604   -3.470492   -3.247502
