17

C       0.023886    1.514260    0.132890
C       0.002700    0.025745   -0.013555
C       0.652910   -0.794448   -1.160905
C       0.682179   -1.840418   -0.034384
O       0.833591   -0.748227    0.943515
C      -0.788535   -2.216057    0.215759
O      -1.001284   -2.849241    1.453309
C      -1.317476   -0.743692    0.173731
O      -2.430480   -0.322289    0.312564
H       1.033597    1.910745    0.000362
H      -0.637405    1.965961   -0.612681
H      -0.343728    1.802156    1.122136
H       0.069751   -0.998524   -2.063383
H       1.647713   -0.417939   -1.405163
H       1.435573   -2.621588    0.054999
H      -1.242020   -2.843941   -0.555865
H      -0.560073   -2.301490    2.116136
