19

C      -0.040583    1.539512    0.139170
C      -0.039389    0.003892    0.033683
N       0.620050   -0.668261    1.156747
C      -1.477405   -0.530649   -0.036000
O      -2.130532   -0.150007    1.168763
C       0.692495   -0.472251   -1.257099
O       0.117375    0.004910   -2.458940
C       2.128823   -0.132413   -1.187200
N       3.239420    0.183784   -1.136010
H       0.981359    1.924336    0.217621
H      -0.522112    2.011663   -0.725555
H      -0.597681    1.843513    1.027345
H       1.482099   -0.190646    1.402600
H       0.005682   -0.616722    1.963925
H      -1.981399   -0.117487   -0.918358
H      -1.441541   -1.625499   -0.132938
H      -3.001605   -0.555815    1.183023
H       0.613657   -1.563062   -1.292769
H       0.307726    0.946357   -2.536726
