17

C       0.055396    1.380047   -0.943069
C      -0.008657    0.086110   -0.163269
C       1.098945   -0.884410   -0.194979
O       0.891540   -0.029510    0.932601
C      -1.400194   -0.438392    0.072735
O      -1.557239   -1.525729    0.965817
C      -2.147162   -0.265001    1.341051
C      -1.630291    0.424754    2.490350
C      -1.288376    1.031810    3.469249
H       1.094951    1.680714   -1.091589
H      -0.420719    1.274233   -1.923891
H      -0.459164    2.179476   -0.399752
H       0.889950   -1.937074   -0.016093
H       1.983619   -0.667272   -0.792123
H      -2.000665   -0.505900   -0.838433
H      -3.235362   -0.265558    1.271202
H      -0.951992    1.559009    4.327689
