16

O       0.209945    1.371954   -0.157753
C       0.075366   -0.019583    0.092127
C      -1.343490   -0.473960    0.110710
C      -2.019295   -1.844951    0.023323
C      -2.848882   -1.568630    1.277833
C      -2.640290   -0.073974    0.925958
O      -3.392033    0.096235   -0.310488
C      -2.389236   -0.699319   -0.935785
H      -0.296855    1.571560   -0.952144
H       0.631892   -0.623265   -0.644852
H       0.551496   -0.189147    1.064819
H      -1.589108   -2.776696   -0.322200
H      -3.885306   -1.917138    1.320994
H      -2.307684   -1.851169    2.184244
H      -2.776315    0.740579    1.633427
H      -2.353718   -0.757403   -2.016324
