23

C       0.010713    1.607108    0.299853
C      -0.023578    0.099577   -0.012561
C      -1.415675   -0.462712   -0.065663
C      -2.086412   -0.931350   -1.132484
C      -1.617993   -1.058431   -2.549125
C      -3.488293   -1.387325   -0.757056
C      -3.541985   -1.232575    0.758804
C      -2.561888   -2.022271    1.587837
C      -2.233855   -0.597039    1.184319
H       1.041666    1.971171    0.352464
H      -0.513312    2.177280   -0.473631
H      -0.469293    1.829311    1.258267
H       0.496228   -0.080827   -0.959069
H       0.548702   -0.433223    0.759536
H      -1.636138   -2.104671   -2.881952
H      -2.278576   -0.507364   -3.231874
H      -0.602551   -0.681354   -2.692686
H      -4.248094   -0.765074   -1.252415
H      -3.683337   -2.418461   -1.083509
H      -4.477499   -0.943744    1.223098
H      -2.831029   -2.204933    2.623470
H      -1.999348   -2.823082    1.117173
H      -2.180717    0.163916    1.955896
