17

C       0.005409    1.486935   -0.223382
C       1.571054    1.501526    0.042433
C       1.409785    0.210565    0.907257
C       1.116789    0.192891    2.386055
C       0.150165   -0.722665    2.537257
C      -0.121477   -1.231808    1.133835
C       1.287239   -1.273653    0.372280
O       0.688889   -0.840770   -0.872236
C       0.064087    0.005563    0.174072
H      -0.527705    2.087838    0.517470
H      -0.360098    1.717922   -1.226061
H       2.148049    1.347983   -0.868580
H       1.951280    2.374682    0.576180
H       1.617165    0.781466    3.143677
H      -0.319630   -1.077134    3.443925
H      -0.857950   -2.011166    0.938504
H       2.021694   -2.088221    0.328289
