13

O       0.327447    1.133749    0.434231
C       0.214336   -0.185686    0.012951
C      -1.205236   -0.821632   -0.222411
O      -0.770963   -1.209921   -1.579643
C       0.409404   -0.510490   -1.457642
N       1.273513   -0.189147   -2.305762
C      -1.610992   -1.940915    0.592341
C      -1.931209   -2.859090    1.298151
H       0.261170    1.708015   -0.336849
H       0.814758   -0.814573    0.675400
H      -1.988368   -0.060894   -0.295568
H       1.039512   -0.534669   -3.238186
H      -2.220832   -3.672954    1.916660
