18

C      -0.062740   -1.175533    0.160824
C      -0.016835    0.023838    0.084209
C       0.017231    1.453514   -0.053937
C      -1.005832    2.112498   -0.997890
C      -0.318810    3.325299   -1.632685
C       0.096122    4.500123   -0.787205
C       1.096289    3.409867   -1.089680
C       1.281343    2.277704   -0.100700
N       0.487059    2.216359    1.124125
H      -0.094525   -2.233500    0.243840
H      -1.272660    1.393350   -1.777389
H      -1.933029    2.365616   -0.469975
H      -0.522876    3.515551   -2.680461
H       0.237641    5.446837   -1.298045
H      -0.300297    4.617247    0.216913
H       1.939642    3.641887   -1.729006
H       2.263383    1.822191   -0.026040
H      -0.069826    3.055117    1.262117
