18

C       0.024624    1.599016   -0.093936
C       0.095202    0.070859   -0.016619
C       0.720207   -0.525424   -1.298098
O      -0.005674   -0.190275   -2.469502
C       0.839036   -0.423309    1.188254
C       1.671788    0.232762    2.066743
N       2.067727   -0.733236    2.929797
N       1.523979   -1.923587    2.622475
N       0.782755   -1.737200    1.570222
H       1.029470    2.036851   -0.123127
H      -0.489684    1.898357   -1.009496
H      -0.507083    2.021624    0.763836
H      -0.927032   -0.328258    0.050461
H       1.725535   -0.111457   -1.438694
H       0.821740   -1.612167   -1.179202
H      -0.834594   -0.679340   -2.451138
H       1.994442    1.255844    2.152608
H       2.676691   -0.660527    3.729016
