21

C      -0.031419    1.502252   -0.037603
C       0.018728    0.005905   -0.045169
C       0.084732   -0.781344   -1.123948
C       0.111301   -2.251602   -0.785847
C       0.382789   -2.247406    0.739759
C       0.001722   -0.834622    1.199225
C       0.417187   -0.314572    2.565033
C      -1.025942   -0.648300    2.291710
O      -1.970404    0.375116    2.152326
H       0.830860    1.925638    0.493736
H      -0.022510    1.898419   -1.056658
H      -0.929020    1.859441    0.475076
H       0.084767   -0.415332   -2.145386
H      -0.849034   -2.728737   -1.028342
H       0.876597   -2.805908   -1.340956
H      -0.163046   -3.029285    1.276164
H       1.450637   -2.412385    0.924219
H       0.994728   -0.966824    3.213496
H       0.666046    0.739218    2.640550
H      -1.420909   -1.563322    2.736191
H      -2.105715    0.772394    3.019259
