15

N      -0.663614    0.149536   -1.027832
C      -0.044055   -0.051408    0.161817
O       1.045697    0.396024    0.458813
C      -0.861085   -0.912327    1.151689
N      -0.974836   -2.310746    0.763757
C      -1.915647   -2.760673   -0.105333
N      -2.749595   -1.981155   -0.697183
C      -1.909138   -4.203201   -0.292667
N      -1.931537   -5.345209   -0.470994
H      -0.168321    0.654120   -1.745055
H      -1.547671   -0.301984   -1.229435
H      -0.350080   -0.861918    2.113017
H      -1.873438   -0.509117    1.251836
H      -0.264421   -2.953854    1.070685
H      -3.414387   -2.503574   -1.259663
