20

C      -0.440726    1.454916    0.010107
C      -0.097857   -0.031491    0.021883
C       1.096175   -0.422965   -0.901410
C       2.011657   -0.527203    0.347015
C       3.160410   -1.538743    0.502352
O       4.113087   -0.441351    0.687487
C       3.109335    0.493939    0.553494
N       3.147434    1.747525    0.596269
C       0.749965   -0.485773    1.249178
H       0.455351    2.063401    0.172130
H      -0.881845    1.746043   -0.949641
H      -1.163176    1.694989    0.798072
H      -1.001566   -0.625352   -0.140943
H       0.963217   -1.394374   -1.386676
H       1.395626    0.312272   -1.652160
H       3.126056   -2.178270    1.388850
H       3.411334   -2.126671   -0.385018
H       4.094578    2.092612    0.758666
H       0.792141    0.202791    2.096510
H       0.480456   -1.481956    1.612193
