15

C       0.130729    1.516053    0.035718
C      -0.003270    0.023055    0.020043
C      -0.138113   -0.684472   -1.106531
O      -0.263693   -2.044085   -1.176005
C      -0.259325   -2.804880   -0.036906
O      -0.367811   -3.996335   -0.097696
N      -0.120620   -2.093957    1.134122
C       0.013127   -0.704375    1.290048
N       0.138466   -0.100820    2.407476
H       1.069644    1.813599    0.512193
H       0.102310    1.923934   -0.977816
H      -0.673340    1.968865    0.623558
H      -0.162646   -0.250533   -2.098251
H      -0.119033   -2.674479    1.960956
H       0.131653   -0.746087    3.198803
