17

O      -0.017256   -0.023984   -0.027376
C       0.003068    1.179060   -0.025022
C      -1.271595    2.093314   -0.114203
N      -0.872098    3.373110   -0.749775
C       0.568741    3.433259   -0.593608
C       1.133767    3.376794    0.772807
C       1.162259    2.110765   -0.089658
N       2.191792    2.126826   -1.135396
C       1.665354    3.425391   -1.669058
H      -2.049923    1.582815   -0.684528
H      -1.671172    2.263184    0.893804
H      -1.086679    3.327397   -1.740215
H       2.094929    3.831369    0.994117
H       0.425306    3.397793    1.592693
H       3.143885    2.166225   -0.783241
H       1.280170    3.306793   -2.688088
H       2.360546    4.272502   -1.650406
