23

C       1.017036   -1.016411   -1.010993
C       0.153102   -0.176727   -0.060663
C      -1.366977   -0.456864   -0.105058
C      -2.001252   -0.025892   -1.446445
C      -2.009188    1.471392   -1.619066
O      -1.535035    2.072882   -2.548947
C      -1.753514   -1.919367    0.219798
C      -1.183101   -2.424752    1.545588
O      -3.172396   -2.081650    0.196511
H       2.068692   -0.729140   -0.918418
H       0.950309   -2.086728   -0.790842
H       0.732380   -0.872873   -2.057395
H       0.509469   -0.314234    0.966133
H       0.310981    0.884678   -0.288368
H      -1.826350    0.159639    0.685864
H      -1.496000   -0.477849   -2.304453
H      -3.043649   -0.369380   -1.444339
H      -2.509851    2.020121   -0.783762
H      -1.401090   -2.567619   -0.591028
H      -1.470143   -1.762457    2.372762
H      -1.576893   -3.422856    1.754818
H      -0.091663   -2.483245    1.529986
H      -3.530372   -1.627326    0.967865
