18

C      -0.220893    1.484088    0.119356
C       0.049681    0.011160   -0.031108
C      -0.752634   -1.038927    0.688502
N       0.623460   -0.776385    1.086351
C       1.576063   -1.763825    0.510702
C       1.405348   -1.799920   -1.011854
O       0.638296   -2.933928   -1.408800
C       0.621408   -0.499258   -1.316078
O       0.515359    0.003684   -2.408444
H       0.703240    2.063856    0.031484
H      -0.902372    1.818969   -0.668091
H      -0.669086    1.697718    1.092353
H      -1.509927   -0.688890    1.385130
H      -0.979484   -1.969846    0.176806
H       2.584982   -1.429716    0.769177
H       1.412363   -2.748347    0.955820
H       2.368695   -1.776633   -1.537270
H       0.443534   -2.833373   -2.348598
