10

F       0.089940    0.073566    0.002190
C      -0.071490    1.371237    0.011398
C      -1.259662    2.001948    0.031072
N      -1.289868    3.379207    0.038870
C      -0.188627    4.015160    0.027178
F      -0.184590    5.333312    0.034418
C       1.157768    3.414973    0.005586
O       2.215800    3.960953   -0.005938
O       1.097348    2.010508   -0.001149
H      -2.194268    1.461006    0.040958
