17

C       0.013292    1.542789    0.008573
C      -0.052146    0.048582    0.075542
C      -1.319936   -0.817398   -0.025238
C      -0.693891   -1.825840    0.990015
C       0.561547   -0.934487    1.066761
N       1.126869   -0.729651   -0.274999
C       1.373021   -0.730399    2.220164
C       2.020618   -0.567965    3.221318
H       1.000799    1.892154    0.319501
H      -0.163813    1.893147   -1.015440
H      -0.742712    1.999121    0.655765
H      -2.209853   -0.326466    0.376049
H      -1.551340   -1.192386   -1.028137
H      -1.243852   -1.867528    1.931930
H      -0.513915   -2.847933    0.640916
H       0.925720   -1.514400   -0.894348
H       2.605960   -0.422976    4.095068
