12

C      -0.042515    1.473590    0.068358
N       0.104280    0.028830   -0.019599
C       0.636899   -0.700008    0.989796
C       0.683354   -2.069846    1.197662
N       1.383912   -2.255779    2.346647
N       1.771041   -1.202699    2.876916
O       1.266677   -0.078570    1.962040
H       0.910226    1.920098    0.359403
H      -0.320660    1.856293   -0.915461
H      -0.803418    1.779812    0.798025
H      -0.530450   -0.463887   -0.625729
H       0.282150   -2.881669    0.617392
