20

C      -0.300547    1.386768   -0.018197
C       1.149501    0.986845    0.087787
C       0.080245   -0.071678    0.070441
C      -0.248457   -0.863353    1.305753
C       0.828467   -1.431059    2.133966
O       0.123893   -0.250085    2.546984
C      -1.609811   -1.507051    1.306777
C      -2.275699   -1.884650    2.573657
N      -2.778580   -0.744953    1.782355
H      -0.748512    1.841555    0.858066
H      -0.675253    1.762600   -0.963257
H       1.783733    1.086158   -0.785799
H       1.639939    1.180793    1.034919
H      -0.022165   -0.648444   -0.844984
H       0.635124   -2.315799    2.737229
H       1.865362   -1.267419    1.846917
H      -1.814622   -2.095335    0.413957
H      -2.931915   -2.749714    2.602300
H      -1.751241   -1.665310    3.498597
H      -2.446913    0.113414    2.218748
