15

C      -0.046111    1.508662    0.048574
C      -0.000236    0.021795   -0.031992
C      -0.041548   -0.769323   -1.131417
N       0.034164   -2.093145   -0.650347
C       0.031160   -3.271608   -1.346958
O       0.102062   -4.364552   -0.814308
C       0.117639   -1.975435    0.751762
O       0.202625   -3.048886    1.520113
N       0.099361   -0.744417    1.140046
H       0.855642    1.896587    0.534246
H      -0.128083    1.957239   -0.944447
H      -0.899506    1.835817    0.651979
H      -0.114644   -0.560534   -2.185151
H      -0.041593   -3.138820   -2.437692
H       0.192886   -3.833308    0.931167
