16

O      -0.217379    1.256596    0.195883
N      -0.085760   -0.141069    0.192469
C      -1.211360   -0.714808    0.165972
C      -2.683482   -0.356546   -0.068396
C      -2.684712   -1.605501   -1.007030
C      -1.583536   -2.175606   -0.055477
O      -2.239258   -2.698847    1.103912
C      -2.791509   -1.650292    1.875375
O      -3.456024   -0.678591    1.090359
H       0.701055    1.548070    0.208819
H      -2.975064    0.629388   -0.423671
H      -3.618156   -2.169442   -1.041530
H      -2.304567   -1.382418   -2.006515
H      -0.847885   -2.901083   -0.398759
H      -3.529321   -2.089993    2.548522
H      -1.988212   -1.161634    2.449523
