16

C      -0.016087    1.502333    0.030305
C       0.002849    0.051490    0.008998
C       0.020160   -1.158259   -0.011401
C       0.039894   -2.517439   -0.034319
C       0.057081   -3.726479   -0.060983
C       0.051972   -5.187998   -0.064411
C      -1.384543   -5.768499   -0.009696
C       0.775449   -5.716009   -1.235578
N       1.331060   -6.153657   -2.148675
H       1.000837    1.910245    0.025544
H      -0.541557    1.903193   -0.843614
H      -0.522749    1.877423    0.926537
H       0.596263   -5.541646    0.822923
H      -1.347178   -6.860068    0.015959
H      -1.886615   -5.403618    0.888609
H      -1.955111   -5.453027   -0.885172
