17

O      -0.191183    1.291612   -0.163568
C      -0.070252   -0.067691   -0.044157
C      -0.356392   -1.006263   -1.148755
C      -1.320777   -1.022842    0.045235
C      -0.983239   -2.011801    1.140608
O       0.425195   -1.889379    1.352479
C       0.823239   -0.552378    1.082088
C      -2.605257   -0.343785   -0.072748
O      -2.810281    0.569015   -0.857488
H      -0.994539    1.468073   -0.683210
H      -0.762481   -0.579021   -2.059391
H       0.259800   -1.891968   -1.267434
H      -1.550141   -1.776235    2.055988
H      -1.168077   -3.058993    0.879476
H       1.885940   -0.576295    0.822685
H       0.682686    0.113772    1.946817
H      -3.396221   -0.657633    0.639911
