20

O       0.006656    1.410867    0.205186
C      -0.009359    0.019921   -0.060014
C      -1.409942   -0.493468   -0.008311
C      -2.511817    0.205652    0.272581
C      -3.732025   -0.635368    0.190943
C      -5.007101   -0.266802    0.855299
N      -4.898912   -0.194845   -0.612697
C      -3.234308   -2.075704    0.022352
C      -1.726659   -1.942142   -0.321928
H       0.920784    1.707497    0.192617
H       0.420211   -0.206583   -1.053004
H       0.606639   -0.535811    0.670049
H      -2.534451    1.264186    0.501869
H      -5.667208   -1.048802    1.223932
H      -5.041816    0.657084    1.428519
H      -4.769455    0.772641   -0.902637
H      -3.357918   -2.626187    0.960413
H      -3.806137   -2.598424   -0.746937
H      -1.520354   -2.161653   -1.378645
H      -1.107740   -2.637994    0.257756
