22

C      -0.158016    1.646371    0.049163
C      -0.040181    0.118703   -0.064327
C      -1.430761   -0.594255    0.032613
N      -1.373165   -2.054285   -0.075653
C      -2.109665   -0.221636    1.279163
N      -2.613400    0.076009    2.275690
N       0.642756   -0.377213   -1.267180
C       0.207245    0.217579   -2.525220
C       2.093983   -0.377634   -1.154253
H       0.819570    2.122061   -0.073297
H      -0.830826    2.057651   -0.710034
H      -0.548460    1.929501    1.029727
H       0.546575   -0.248018    0.786168
H      -2.058131   -0.222252   -0.789566
H      -0.676738   -2.249801   -0.793805
H      -1.005459   -2.441115    0.790030
H       0.523667    1.267014   -2.652390
H       0.626181   -0.358779   -3.356112
H      -0.881854    0.179697   -2.615616
H       2.399630   -0.914171   -0.251322
H       2.524493   -0.895967   -2.017318
H       2.537862    0.633883   -1.120175
