17

O      -0.009796    1.320397    0.285673
N      -0.005147   -0.073440    0.448117
C      -1.056364   -0.605109   -0.040048
C      -1.199961   -2.100366    0.017695
C      -1.917260   -2.560971   -1.248577
O      -3.230657   -1.992009   -1.326202
C      -3.395560   -0.670190   -1.022055
N      -4.543216   -0.137743   -0.995439
C      -2.156804    0.151724   -0.743930
H       0.816275    1.578085    0.708303
H      -0.221813   -2.576169    0.119494
H      -1.809782   -2.393812    0.882671
H      -1.340776   -2.292560   -2.144317
H      -2.071058   -3.642023   -1.254303
H      -5.255763   -0.830336   -1.235975
H      -2.449365    1.041409   -0.184937
H      -1.757708    0.523661   -1.699144
