19

O       0.047697    1.459897    0.061132
C       0.011053    0.048406    0.160423
C      -1.400503   -0.529058   -0.129928
C      -1.902113   -0.145005   -1.496384
C      -2.420626   -1.007385   -2.368827
C      -2.525830   -2.485137   -2.098033
C      -1.464426   -2.942729   -1.081571
C      -1.392862   -2.037073    0.134496
O      -1.291282   -2.464986    1.261996
H      -0.445715    1.821622    0.804631
H       0.723059   -0.320291   -0.585471
H       0.336197   -0.303351    1.148201
H      -2.061686   -0.100695    0.639215
H      -1.830261    0.911477   -1.737613
H      -2.791059   -0.647955   -3.325363
H      -3.531112   -2.730509   -1.726303
H      -2.409589   -3.051797   -3.028388
H      -1.617784   -3.969706   -0.742584
H      -0.478864   -2.893590   -1.567182
