18

O       0.629825    0.123730    0.293206
C       0.396726    1.006144   -0.490323
C       1.415528    2.050233   -0.906044
C       0.867975    3.474393   -0.832045
O      -0.264108    3.696453   -0.470943
C       1.815299    4.602255   -1.239683
C       2.228617    4.517828   -2.697244
C       3.501376    5.115347   -3.166105
N       3.338635    3.649371   -3.131841
H      -0.593098    1.104861   -0.979948
H       2.312613    1.949993   -0.284580
H       1.726578    1.852415   -1.942564
H       1.293877    5.543614   -1.041559
H       2.711687    4.567042   -0.605319
H       1.392815    4.509864   -3.394824
H       3.566060    5.547279   -4.160241
H       4.145758    5.583097   -2.425998
H       3.826818    3.278101   -2.319547
