20

C      -0.284653    1.329845   -0.141265
O       0.019680   -0.041868    0.077609
C       0.564858   -0.690768   -0.969987
N       0.877743   -1.905592   -0.882289
C       1.461817   -2.534386   -2.050262
C       2.840039   -3.123913   -1.715299
C       3.454555   -3.833079   -2.895500
C       4.227143   -5.073254   -2.756413
O       2.886443   -5.100242   -3.247736
H       0.617790    1.912017   -0.364985
H      -1.007440    1.456911   -0.956525
H      -0.725235    1.698411    0.785749
H       0.696787   -0.071267   -1.872356
H       0.808444   -3.355967   -2.368107
H       1.551660   -1.840646   -2.906243
H       3.510228   -2.319288   -1.386545
H       2.733581   -3.819985   -0.877322
H       3.673088   -3.202645   -3.760701
H       4.998626   -5.319454   -3.485071
H       4.370733   -5.504406   -1.766334
