18

C      -0.003223    1.794891    0.111390
C      -0.046478    0.284136   -0.066471
O       0.611241   -0.040334   -1.288095
C       0.011361   -0.898879   -2.145829
N       0.569879   -1.176277   -3.239784
C       0.678911   -0.462249    1.084580
N       0.103298   -0.103141    2.380319
C       0.659022   -1.919620    0.834070
N       0.586157   -3.064823    0.691334
H       1.032293    2.146950    0.083701
H      -0.550066    2.278112   -0.701912
H      -0.444107    2.078698    1.067745
H      -1.088976   -0.063777   -0.102101
H      -0.951814   -1.278953   -1.781132
H      -0.003686   -1.830720   -3.767313
H       1.723480   -0.132666    1.068378
H      -0.810198   -0.535557    2.488857
H       0.682506   -0.465787    3.130858
