17

O       0.062225    0.110022   -0.637392
C       0.021548    1.196921   -0.142474
C      -1.124297    2.127714    0.299134
C      -0.046476    3.124564    0.756548
C      -0.109729    4.613031    0.704862
C      -0.076016    3.906798    2.057794
C      -1.244670    3.866181    2.884402
C      -2.232726    3.806047    3.568957
C       1.102603    2.210049    0.292694
H      -1.765399    2.455787   -0.525665
H      -1.760007    1.723000    1.093520
H       0.780490    5.161967    0.415290
H      -1.046469    5.076114    0.414544
H       0.867930    3.961781    2.594064
H      -3.101061    3.767684    4.178742
H       1.778723    1.841957    1.071052
H       1.703340    2.587279   -0.541955
