15

C      -0.466741    0.927091    0.007547
O       0.613624    0.022030   -0.174577
C       1.021646   -0.584069    0.994986
C       0.228214   -1.656897    1.682217
O      -0.546915   -2.379025    0.693209
C       0.614131   -2.824415    0.066953
O       0.710128   -3.603494   -0.818630
C       1.530428   -2.018469    0.982434
O       2.737301   -2.424703    1.483471
H      -0.196324    1.743774    0.691983
H      -0.694180    1.344690   -0.974740
H      -1.351937    0.409844    0.398102
H       1.592022    0.044786    1.686023
H      -0.085238   -1.722646    2.714377
H       3.438400   -2.087855    0.913450
