16

C      -0.141781    1.423609   -0.129420
C       1.258819    0.966614    0.108785
C       0.137579   -0.060081    0.056636
C      -0.294652   -0.741222    1.291999
N      -0.694499   -2.022056    1.183567
C      -1.073784   -2.590443    2.317843
C      -1.047808   -1.883298    3.518309
N      -0.641680   -0.615976    3.562291
N      -0.260044   -0.036441    2.435035
H      -0.650939    1.919941    0.688175
H      -0.427971    1.746654   -1.123850
H       1.960353    0.967326   -0.717653
H       1.686878    1.157133    1.085780
H       0.079237   -0.695049   -0.818472
H      -1.404436   -3.626191    2.275133
H      -1.352835   -2.325252    4.460873
