21

C       0.032679    1.565251    0.058673
C      -0.013945    0.027940   -0.039523
C      -1.412957   -0.517879   -0.041065
C      -2.110349   -0.973477   -1.087656
C      -3.516753   -1.400728   -0.721434
C      -3.556343   -1.224452    0.793361
C      -2.590707   -2.040897    1.631485
C      -2.232528   -0.631045    1.217161
O      -2.169548    0.381666    2.180956
H       1.067255    1.921478    0.094769
H      -0.454459    2.018634   -0.810059
H      -0.490554    1.912904    0.952282
H       0.501186   -0.293373   -0.951644
H       0.547276   -0.401866    0.802155
H      -1.720155   -1.066127   -2.096020
H      -4.270576   -0.778689   -1.222761
H      -3.724029   -2.436364   -1.021807
H      -4.469114   -0.896989    1.275594
H      -2.878039   -2.180235    2.669332
H      -2.057820   -2.872784    1.181015
H      -1.480605    0.149115    2.812055
