14

O      -0.228383    0.180258    0.533615
C       0.032668    1.093260   -0.200699
C       1.343279    1.859056   -0.134805
O       1.311216    2.857691   -1.136868
C       2.409715    3.638214   -1.217402
C       3.571629    3.652264   -0.505070
O       4.368398    4.635815   -0.973693
N       3.731253    5.288889   -2.013703
C       2.573013    4.696279   -2.155148
H      -0.661139    1.455290   -0.989821
H       1.457095    2.302209    0.865982
H       2.180947    1.163073   -0.292373
H       3.962699    3.069870    0.311639
H       1.880493    5.028443   -2.914375
