13

C      -0.015815    1.471160    0.078845
C      -0.006213   -0.012991   -0.077874
N      -0.103898   -0.596012   -1.218465
C      -0.081437   -1.974494   -1.219241
C       0.036934   -2.698769   -0.087454
F       0.058878   -4.023621   -0.088334
C       0.148474   -2.055670    1.210162
O       0.258522   -2.561863    2.287123
O       0.115878   -0.654897    1.107506
H       0.908536    1.806886    0.559532
H      -0.115333    1.938871   -0.899470
H      -0.845167    1.778059    0.723999
H      -0.163827   -2.466410   -2.183056
