14

O       0.077830    1.313966    0.224420
C       0.067378   -0.023087   -0.001576
C       0.082423   -0.759427   -1.172694
C       0.058289   -2.115825   -0.725089
C       0.030570   -2.140601    0.656560
N       0.036273   -0.834233    1.108997
N       0.006185   -3.394282    1.182742
C       0.019082   -4.164624    0.108518
N       0.050414   -3.450121   -1.073988
H       0.099110    1.765334   -0.624640
H       0.106812   -0.358580   -2.173204
H       0.020807   -0.503803    2.057472
H       0.006998   -5.243434    0.114754
H       0.064207   -3.845414   -1.997530
