15

C       0.007924    1.512396    0.104121
C       0.032056    0.025978    0.003538
C      -0.011989   -0.773023   -1.111681
O       0.037888   -2.093298   -0.663000
C       0.107094   -1.982237    0.667346
N       0.219554   -3.127790    1.381622
N       0.104758   -0.757860    1.135568
C      -0.099534   -0.512319   -2.524247
O      -0.138681   -1.351386   -3.401795
H       0.912802    1.870819    0.605761
H      -0.059788    1.987526   -0.875963
H      -0.844570    1.835533    0.710492
H      -0.078336   -3.979671    0.934612
H       0.033695   -3.045821    2.367693
H      -0.130729    0.574820   -2.756210
