14

O      -0.008148   -0.010125    0.147760
C      -0.067302    1.181735    0.020590
C      -1.266062    2.053283   -0.095830
C      -0.885469    3.336016   -0.071079
C       0.596337    3.414507   -0.007179
C       1.325243    2.857467    1.198584
C       0.673337    2.548157    2.436987
C       0.178552    2.281309    3.499294
N       1.107050    2.047443   -0.032804
H      -2.270917    1.654867   -0.105324
H      -1.524549    4.208805   -0.107932
H       1.119798    4.151201   -0.610982
H       2.363387    3.166098    1.305204
H      -0.266549    2.041240    4.433541
