20

C      -0.038554    1.525897   -0.058970
C       0.323336    0.044335   -0.067087
N       0.335704   -0.487495    1.295910
C       0.643632   -1.844347    1.464146
C       1.460418   -2.407182    2.407438
C       2.305695   -1.847791    3.493690
O       1.421916   -3.775866    2.291283
C       0.596300   -4.069445    1.259461
C       0.086418   -2.938410    0.711193
H       0.706393    2.111966    0.492342
H      -0.078229    1.919437   -1.078664
H      -1.011054    1.683816    0.416073
H      -0.426482   -0.510997   -0.640976
H       1.287338   -0.106282   -0.582788
H       0.894070    0.097135    1.906104
H       1.847432   -1.948889    4.486263
H       3.279248   -2.348616    3.529910
H       2.487911   -0.781842    3.323466
H       0.475269   -5.116714    1.035990
H      -0.604292   -2.880927   -0.114746
