19

C      -0.162310    1.536768   -0.130534
C       0.006566    0.037466   -0.003966
C       1.348807   -0.617868   -0.207654
O       2.422844    0.238347   -0.481369
C       0.711342   -0.632832    1.171192
C       1.327908    0.214500    2.267400
C       0.136773   -1.951645    1.653784
H       0.762691    2.069797    0.093504
H      -0.449272    1.801763   -1.153891
H      -0.946565    1.906060    0.539431
H      -0.834949   -0.528558   -0.397790
H       1.377426   -1.559413   -0.758600
H       3.209226   -0.127302   -0.063093
H       1.853477    1.083665    1.868551
H       0.564048    0.570275    2.968462
H       2.049667   -0.374247    2.847486
H       0.896912   -2.552858    2.168015
H      -0.688126   -1.789868    2.358516
H      -0.253492   -2.548360    0.822886
