16

N      -0.187484    1.339289   -0.382135
C      -0.108497    0.102630   -0.173721
O       1.090543   -0.603845   -0.158186
C       0.887806   -1.970455   -0.029313
O       1.802702   -2.733389   -0.006014
C      -0.598900   -2.248363    0.079563
C      -1.084363   -2.522300    1.536067
C      -1.573707   -1.048394    1.632117
C      -1.240651   -0.842546    0.113424
H       0.735989    1.749444   -0.530800
H      -0.896745   -2.969470   -0.682459
H      -1.897463   -3.249641    1.565460
H      -0.313201   -2.837907    2.241137
H      -2.627657   -0.919013    1.880500
H      -0.984212   -0.413912    2.296906
H      -2.100384   -0.641329   -0.522679
