15

O       0.168817    1.387637    0.073323
C      -0.000303    0.016572    0.000009
C      -1.439584   -0.604742    0.047156
O      -1.183468   -1.379981   -1.129420
C       0.067423   -0.704271   -1.392574
C       0.001638    0.214190   -2.518417
C      -0.066116    1.033990   -3.396650
C      -1.762571   -1.412370    1.277515
O      -1.715258   -2.611127    1.348748
H      -0.168870    1.778377   -0.744816
H       0.672431   -0.438483    0.729722
H      -2.217112    0.159583   -0.107232
H       0.885775   -1.421083   -1.516640
H      -0.115145    1.722660   -4.204779
H      -2.025615   -0.776337    2.155421
