18

C      -0.016776    1.509335    0.012056
C       0.002595    0.010137    0.008534
C      -0.030375   -0.801295   -1.107928
N       0.005317   -2.102465   -0.669625
C       0.002507   -3.400018   -1.199881
C       0.053732   -4.299562   -0.209507
C       0.096476   -3.583325    1.132769
C       0.059908   -2.139437    0.709947
C       0.059381   -0.843653    1.162143
H       0.883340    1.927648    0.478520
H      -0.073647    1.905121   -1.006301
H      -0.875719    1.904204    0.567826
H      -0.075350   -0.555384   -2.156826
H      -0.037444   -3.547019   -2.269324
H       0.063784   -5.372125   -0.330309
H      -0.753922   -3.862424    1.768867
H       1.001435   -3.838148    1.700053
H       0.095043   -0.518277    2.191244
