21

C      -0.795218    1.133471   -0.034899
C       0.024750   -0.154236   -0.111691
C       1.088142   -0.169069   -1.201848
C       2.376545    0.520810   -0.930059
N       2.274557   -0.938212   -0.769536
C       2.022216   -1.350244    0.622909
C       0.832033   -0.535954    1.138815
C       0.907201    0.316559    2.353626
N       0.194400   -0.975922    2.381290
H      -0.152708    2.008157    0.102320
H      -1.370451    1.279728   -0.954452
H      -1.513316    1.103714    0.793356
H      -0.663561   -0.987567   -0.319865
H       0.763833   -0.319620   -2.228243
H       3.001713    0.840028   -1.758774
H       2.456310    1.139607   -0.039331
H       1.765779   -2.415695    0.619334
H       2.922265   -1.225490    1.232582
H       1.824914    0.341436    2.936535
H       0.325117    1.232734    2.392607
H      -0.810208   -0.813252    2.336291
