21

C      -0.068624    1.171006    0.582526
C      -0.177696   -0.192517   -0.078026
O       0.910355   -0.346115   -0.973780
C       0.935124   -1.581242   -1.629341
C      -0.030694   -1.808790   -2.828633
C       1.174935   -2.370927   -3.656837
C       2.132202   -1.752620   -2.582547
C       1.213229   -3.873503   -3.680912
O       1.329026   -4.547546   -4.672160
H       0.875115    1.257853    1.128249
H      -0.103820    1.965129   -0.168615
H      -0.893122    1.321102    1.285735
H      -0.156410   -0.994469    0.678941
H      -1.134038   -0.283604   -0.617748
H       0.864050   -2.403941   -0.900059
H      -0.891398   -2.466644   -2.683939
H      -0.370345   -0.855377   -3.240299
H       1.280946   -2.002120   -4.677567
H       2.501733   -0.777427   -2.906334
H       2.973972   -2.358867   -2.239745
H       1.122616   -4.352126   -2.674824
