23

C      -0.193011    1.646022   -0.046404
C      -0.064157    0.130371   -0.012373
C       1.156722   -0.548254   -0.668469
C       2.099642   -0.241022    0.552171
C       0.680578   -0.547810    1.156814
C       1.062588   -1.793247    0.282023
C       2.563259   -1.718892    0.673479
C       3.572840   -2.212310   -0.361570
C       2.938434   -2.211853    2.070000
H       0.753101    2.138911    0.200600
H      -0.499899    1.993025   -1.039590
H      -0.946371    1.993471    0.669647
H      -1.021575   -0.346087   -0.262003
H       1.441472   -0.556865   -1.721669
H       2.689102    0.665489    0.705702
H       0.414582   -0.555923    2.214909
H       0.435846   -2.673932    0.118757
H       3.331632   -1.872299   -1.372350
H       4.582144   -1.856917   -0.122084
H       3.610800   -3.308027   -0.378331
H       2.961737   -3.307585    2.103895
H       3.936754   -1.857776    2.353431
H       2.235033   -1.870252    2.834199
