14

C      -0.034067    1.508045   -0.062309
C      -0.012170    0.020530    0.041254
N      -0.028386   -0.743856   -1.044780
N      -0.000868   -2.021352   -0.587435
C       0.032760   -2.115804    0.748867
C       0.026560   -0.808017    1.196671
N       0.054771   -0.421228    2.572211
O       0.086620   -1.317484    3.412274
O       0.045368    0.780914    2.825338
H       0.848250    1.945843    0.412344
H      -0.063419    1.797157   -1.114344
H      -0.903348    1.923042    0.454963
H      -0.007280   -2.773724   -1.256286
H       0.057903   -3.047208    1.288467
