18

C      -0.038992    1.561066    0.070353
C       0.035773    0.057250   -0.050265
C       0.680610   -0.673971   -1.209217
C       1.646968    0.067399   -2.132824
C       2.936756    0.145596   -1.290362
O       2.513595    0.108499    0.082392
C       1.354615   -0.676630    0.153900
C       1.444550   -1.846614    0.986191
N       1.494217   -2.786614    1.658890
H       0.924179    2.030499   -0.137553
H      -0.784749    1.970851   -0.618864
H      -0.329674    1.844080    1.086426
H      -0.820297   -0.471736    0.360884
H       0.196498   -1.572416   -1.571413
H       1.804267   -0.483269   -3.063124
H       1.277901    1.063438   -2.394558
H       3.594320   -0.709651   -1.498835
H       3.506006    1.067873   -1.428471
