19

C       0.042396    1.586772   -0.116838
C       0.079576    0.071989    0.010906
C       1.060099   -0.733879   -0.882553
C       1.282271   -1.710714    0.311819
C       2.619027   -2.228040    0.545546
N       3.690751   -2.619511    0.736319
C       0.717442   -0.601887    1.275135
C       1.782959    0.209168    2.004144
H       1.035195    2.028681    0.011785
H      -0.325476    1.880578   -1.106031
H      -0.623477    2.034625    0.628902
H      -0.932721   -0.326941   -0.120517
H       0.680363   -1.169191   -1.808777
H       1.968664   -0.168820   -1.105607
H       0.586625   -2.552625    0.253859
H      -0.005501   -0.985745    2.000155
H       2.551005    0.592983    1.325252
H       1.332085    1.063720    2.518149
H       2.290429   -0.406420    2.752872
