19

C      -0.112151    1.558502    0.066125
C       0.050712    0.052906    0.059385
C       1.340340   -0.661264   -0.238126
C       2.621257    0.139780   -0.084937
O       2.643112    0.630129    1.266855
C       1.663589    0.049318    2.024778
O       1.611551    0.191998    3.212984
C       0.744132   -0.755953    1.152082
C       0.097655   -1.965473    1.779266
H       0.763365    2.073426    0.468421
H      -0.282418    1.928590   -0.950877
H      -0.975231    1.848784    0.673653
H      -0.822740   -0.471915   -0.322301
H       1.346865   -1.509681   -0.912462
H       3.507134   -0.485847   -0.239113
H       2.684506    1.003640   -0.754349
H      -0.482868   -1.667868    2.657392
H      -0.572780   -2.462706    1.072572
H       0.846214   -2.693000    2.109704
