17

O      -0.173406    0.055381    0.231196
C       0.028162    1.175866   -0.154489
C       1.413785    1.776628   -0.297780
O       1.280027    3.014762   -0.967534
C       2.480110    3.723839   -1.118288
C       3.361439    3.347374   -2.299223
C       2.525312    4.600391   -2.342283
C       3.093120    4.169840    0.107635
C       3.591459    4.520236    1.144805
H      -0.793076    1.873389   -0.430318
H       1.845528    1.908680    0.706549
H       2.061981    1.077161   -0.846078
H       4.434842    3.436652   -2.183318
H       3.024821    2.501982   -2.888587
H       1.630399    4.587476   -2.953306
H       3.016979    5.561261   -2.253901
H       4.031761    4.841308    2.056489
