16

C      -0.315044    1.551247    0.213411
C      -0.112321    0.063834    0.088834
N      -0.099010   -0.438503   -1.151067
C       0.078717   -1.755882   -1.301487
C       0.082237   -2.243851   -2.710185
O       0.229653   -3.399896   -3.027760
C       0.252147   -2.644222   -0.239383
C       0.238446   -2.123909    1.046818
C       0.054150   -0.754572    1.212805
H       0.474330    2.088462   -0.321596
H      -1.265886    1.844639   -0.242389
H      -0.312870    1.874839    1.256831
H      -0.065663   -1.432775   -3.453041
H       0.390314   -3.698233   -0.447159
H       0.368637   -2.769443    1.909186
H       0.038411   -0.316385    2.204898
