18

C       0.022431    1.492248   -0.019636
C      -0.022176   -0.003419    0.004624
C       0.546186   -1.022892   -0.989154
N       1.091431   -0.835033    0.378136
C       0.684592   -1.833946    1.399414
C      -0.846557   -1.691208    1.580333
C      -1.239316   -0.938603    0.303385
C      -0.784918   -1.714843   -0.959048
O      -1.361990   -2.425178   -1.736057
H       1.011720    1.836734   -0.330949
H      -0.723841    1.895062   -0.711491
H      -0.183641    1.904357    0.974644
H       1.223970   -0.908080   -1.828250
H       0.977077   -2.832437    1.063153
H       1.233383   -1.615740    2.319508
H      -1.349816   -2.658190    1.662448
H      -1.097574   -1.106053    2.471648
H      -2.254443   -0.544220    0.262849
