19

C      -0.037119    1.366976   -0.015504
O       0.030609   -0.044480    0.040052
C       0.688246   -0.535730    1.133572
C       0.663627   -0.203237    2.621675
C       0.907290   -1.704300    2.947405
C       0.918657   -2.035069    1.457087
C       2.219619   -1.680330    2.169799
C       3.469144   -2.482137    2.333401
C       1.992505   -0.169943    1.833532
H       0.965160    1.816533   -0.054591
H      -0.579246    1.623216   -0.927631
H      -0.575727    1.777937    0.850087
H       0.196364    0.597424    3.178919
H       0.601763   -2.330071    3.777009
H       0.634584   -2.943422    0.943324
H       4.075263   -2.470795    1.419797
H       4.089023   -2.098314    3.152330
H       3.228970   -3.527075    2.559611
H       2.678396    0.657587    1.707644
