18

C       0.647599    0.632156    1.014336
C       0.295742   -0.615407    0.358504
C      -0.014665   -1.650372   -0.180830
C      -0.390767   -2.887046   -0.837457
O      -1.518207   -3.082682   -1.239230
C       0.716921   -3.927744   -0.975211
C       1.038681   -4.594320    0.351644
C       2.418932   -5.057833    0.638891
N       1.852010   -3.911314    1.369004
H       1.564069    1.056372    0.590371
H      -0.151170    1.373692    0.912021
H       0.821486    0.467651    2.083405
H       0.371359   -4.673964   -1.697314
H       1.619620   -3.444817   -1.369482
H       0.209044   -5.157088    0.775020
H       2.582520   -5.948085    1.239395
H       3.179910   -4.876566   -0.116595
H       2.212206   -3.038232    0.991380
