19

C      -0.068720    1.378982   -0.026402
O      -0.036830   -0.041735   -0.094550
C       0.672088   -0.552343   -1.150442
C       0.579873   -2.105542   -1.234776
C       0.883494   -2.340170   -2.739974
C       1.094477   -0.864130   -3.224369
O       0.124932   -0.175331   -2.431741
C       2.409776   -0.381727   -2.620370
C       2.148882   -0.175623   -1.330813
H       0.940902    1.801065    0.062851
H      -0.552265    1.805357   -0.910993
H      -0.643656    1.632064    0.866280
H       1.279297   -2.600738   -0.558940
H      -0.436121   -2.404758   -0.969659
H       1.756193   -2.972301   -2.919098
H       0.026957   -2.780673   -3.255285
H       0.930933   -0.683162   -4.285867
H       3.362325   -0.355648   -3.133075
H       2.829109    0.054989   -0.521961
