21

C       0.111412    1.356492   -0.220217
N      -0.088791    0.001393    0.257210
C      -1.281259   -0.650684    0.006957
O      -2.268238   -0.089745   -0.441058
N      -1.254939   -1.996796    0.309498
C      -2.486459   -2.763150    0.332071
C      -2.189074   -4.233569    0.099046
O      -1.321361   -4.668331    1.130330
C      -0.925873   -6.012307    0.991242
H       0.740238    1.914745    0.480006
H       0.575006    1.393964   -1.215589
H      -0.867835    1.831371   -0.283264
H       0.734514   -0.569912    0.362507
H      -0.533781   -2.343427    0.923362
H      -3.018975   -2.651353    1.288096
H      -3.137031   -2.373430   -0.453086
H      -3.125284   -4.815221    0.109986
H      -1.712053   -4.374649   -0.884481
H      -0.385907   -6.183674    0.046706
H      -0.261967   -6.247970    1.826631
H      -1.789081   -6.695347    1.020538
