17

C       0.008432    1.567280    0.206434
C       0.082225    0.043432   -0.021103
N       0.799891   -0.351030   -1.220421
C       2.161514   -0.452000   -1.263443
N       2.790229   -0.504723   -2.374138
C       2.806385   -0.471492    0.110453
O       1.977945   -0.983290    1.162468
C       0.668531   -0.648389    1.209338
O       0.016742   -0.896608    2.184213
H       1.005242    2.005042    0.317746
H      -0.477738    2.047469   -0.647578
H      -0.570690    1.783627    1.107991
H      -0.937693   -0.342395   -0.096743
H       0.348658   -0.220096   -2.114425
H       3.787199   -0.647179   -2.223666
H       3.688386   -1.113360    0.093287
H       3.132273    0.543248    0.375078
