15

C       0.134713    1.309391   -0.183256
O       0.048876   -0.099360   -0.145621
C       0.700012   -0.639706    0.978850
C       0.591100   -2.089719    0.982659
C       0.522333   -3.294183    1.021169
C       0.445258   -4.726532    1.074580
O       0.932531   -5.410778    1.951003
C      -0.310843   -5.426295   -0.065662
O      -0.831724   -4.855139   -0.982586
H       1.179606    1.652808   -0.235628
H      -0.392706    1.636459   -1.081085
H      -0.337439    1.770230    0.698327
H       1.769716   -0.362963    0.992358
H       0.267912   -0.247824    1.917357
H      -0.314747   -6.528876    0.065300
