19

C      -0.119434    1.425860    0.096468
C       1.457711    1.391287   -0.008374
C       2.180275    0.750570    1.199683
O       2.776084   -0.478525    0.777522
C       2.155114   -1.000029   -0.400310
C       1.069112   -2.074825   -0.076393
C      -0.163258   -1.223589    0.214877
C      -0.021240   -0.021460   -0.343299
C       1.344055    0.169589   -0.966945
H      -0.570907    1.633279    1.070385
H      -0.540340    2.103867   -0.652556
H       1.942569    2.301208   -0.368431
H       2.986322    1.387456    1.578243
H       1.478267    0.568014    2.025901
H       2.953670   -1.391149   -1.039501
H       0.942215   -2.771921   -0.916621
H       1.366822   -2.670896    0.792521
H      -0.923870   -1.512999    0.931579
H       1.411396    0.368681   -2.037399
