21

O      -0.036859    1.432755   -0.107787
C      -0.022559    0.044140    0.001452
C      -1.340425   -0.718159    0.079512
C      -2.660384    0.031163    0.121350
C      -3.668558   -0.399623   -0.958445
C      -3.334455    0.108861   -2.369046
C      -2.026614   -0.404837   -2.970078
O      -0.864465    0.045640   -2.270429
C      -0.495778   -0.748805   -1.182286
H      -0.242041    1.625827   -1.032911
H       0.823244   -0.318759    0.578462
H      -1.311359   -1.639882    0.655673
H      -3.105372   -0.117376    1.111652
H      -2.465883    1.106213    0.036401
H      -3.750414   -1.495192   -0.970599
H      -4.662120   -0.022448   -0.686692
H      -4.142895   -0.170108   -3.058096
H      -3.299035    1.206296   -2.361262
H      -2.024000   -1.503582   -3.015635
H      -1.917312   -0.029440   -3.993145
H       0.009498   -1.674260   -1.459202
