20

C      -0.191055    1.475764    0.101335
C       0.043363   -0.016990    0.058906
C       1.351728   -0.610773   -0.338485
C       0.891726   -0.751001    1.112419
C       1.621094    0.029514    2.190020
C       0.353857   -2.115111    1.452571
C       0.475035   -2.599923    2.886787
O      -0.173237   -2.811391    0.607238
H       0.716822    2.035032    0.342388
H      -0.537526    1.826741   -0.876978
H      -0.956882    1.742711    0.837758
H      -0.818885   -0.602820   -0.245941
H       1.341155   -1.516110   -0.934012
H       2.188233    0.059215   -0.512765
H       2.001715    0.976708    1.802043
H       0.974183    0.264188    3.042435
H       2.483807   -0.527398    2.571298
H      -0.013710   -1.903695    3.577104
H       0.013935   -3.584346    2.969687
H       1.525508   -2.660389    3.191570
