16

C      -0.324179    1.297614   -0.519944
N      -0.842385   -0.051076   -0.421019
C      -1.302703   -0.548219    0.745165
O      -1.347963    0.026710    1.816236
N      -1.777718   -1.891544    0.675977
C      -1.839846   -2.754636   -0.392596
C      -2.419365   -4.116449   -0.058602
O      -1.464209   -2.461466   -1.516471
H       0.723174    1.295317   -0.841764
H      -0.905396    1.892202   -1.233493
H      -0.391853    1.759568    0.465287
H      -0.876602   -0.669761   -1.223939
H      -2.108512   -2.205972    1.575972
H      -2.428083   -4.724514   -0.962179
H      -1.819654   -4.614803    0.709916
H      -3.440122   -4.019747    0.325220
