17

O      -0.192607    1.431097   -0.045353
C      -0.073963    0.055428    0.013393
C      -0.289828   -0.838839   -1.170544
C      -1.213351   -0.951241    0.025609
C      -0.521368   -1.756569    1.133591
O      -0.183087   -3.066312    0.707015
C       0.654761   -0.692302    1.134505
C      -1.260374   -1.786112    2.391217
C      -1.845842   -1.836642    3.440364
H       0.521850    1.773851   -0.593289
H      -0.750215   -0.346743   -2.021410
H       0.394555   -1.645760   -1.413270
H      -2.282165   -0.802255   -0.050981
H       0.171837   -3.540610    1.466816
H       1.643892   -1.101152    0.904678
H       0.686462   -0.121534    2.063496
H      -2.372619   -1.875949    4.361801
