19

C       0.321637    0.966222    0.686462
C      -0.370361    0.352694   -0.541363
C       0.596964   -0.247102   -1.510823
N       0.773780    0.102238   -2.719223
C       1.824528   -0.769967   -3.273741
C       2.968908    0.044751   -3.874373
C       2.246281   -1.659601   -2.070578
O       1.350154   -1.270802   -1.009917
H       0.906404    0.213417    1.220814
H       0.996516    1.775148    0.390487
H      -0.420419    1.379133    1.375355
H      -1.060882   -0.434340   -0.214476
H      -0.951383    1.103188   -1.081019
H       1.376507   -1.381000   -4.067725
H       3.438547    0.671195   -3.108675
H       3.735084   -0.612465   -4.299831
H       2.595368    0.698721   -4.666499
H       2.126490   -2.731567   -2.247964
H       3.274170   -1.467558   -1.742474
