17

N      -0.168671    1.245364    0.066499
C      -0.141621    0.000360    0.252508
O      -1.055643   -0.788763   -0.369671
C      -0.911704   -2.155721   -0.198532
C      -0.142763   -3.146900   -1.050543
N      -1.000263   -4.239677   -0.434787
C      -0.536725   -4.224397    1.015931
C      -1.169164   -2.855886    1.163737
C      -2.018263   -3.141697   -0.047273
H       0.567583    1.694588    0.607231
H       0.551181   -0.564008    0.888798
H      -0.380337   -3.053665   -2.112953
H       0.936542   -3.277249   -0.915083
H      -1.062952   -5.005418    1.570745
H       0.544667   -4.342939    1.148086
H      -1.429524   -2.277151    2.041713
H      -3.075336   -3.138401   -0.267915
