18

O       0.178351    1.371676    0.133773
C       0.027652   -0.008641   -0.035836
C      -1.331901   -0.705648   -0.039268
N      -2.630098   -0.088660   -0.252917
C      -2.703023    1.377685   -0.419702
C      -2.623978    0.497255   -1.612987
C      -1.278917    0.220749   -2.287528
C      -0.489436   -0.653167   -1.296441
O       0.126134   -1.809259   -1.784262
H       0.956773    1.650314   -0.360658
H       0.784159   -0.604933    0.478887
H      -1.377399   -1.614264    0.551501
H      -3.668116    1.793255   -0.140720
H      -1.843773    1.976339   -0.154591
H      -3.519515    0.327434   -2.205536
H      -1.419329   -0.364860   -3.199559
H      -0.750385    1.141507   -2.558818
H       0.990115   -1.569802   -2.137007
