20

C       0.041224    1.435363   -0.057235
N      -0.006087   -0.016381    0.015935
C      -1.210443   -0.664733    0.661408
C      -0.875336   -2.133163    0.266582
C       0.436894   -2.239182    0.525828
C       0.715260   -0.851120    1.097314
C       1.652600   -0.085178    2.030443
C       0.366518    0.488531    2.744489
C      -0.490279   -0.636282    2.050194
H       1.083607    1.770249   -0.063726
H      -0.395300    1.738669   -1.017042
H      -0.493306    1.990931    0.728562
H      -2.205961   -0.279820    0.427548
H      -1.557519   -2.845321   -0.174287
H       1.118926   -3.062724    0.373337
H       2.218518   -0.751832    2.687793
H       2.346769    0.626421    1.575724
H       0.374391    0.381933    3.831110
H       0.143678    1.527012    2.510505
H      -0.767276   -1.431006    2.747276
