15

O       0.270191    0.003143   -0.002442
C       0.077368    1.187576    0.016652
C      -1.158505    2.121267    0.099715
C      -0.135944    3.292927    0.017184
C      -0.059737    4.230612    1.230731
C       1.123619    5.081304    1.190382
C       2.115080    5.757306    1.119974
N       0.916358    2.275602   -0.041652
H      -1.845069    2.032506   -0.743466
H      -1.714410    2.051025    1.036951
H      -0.209523    3.884970   -0.901366
H      -0.965978    4.848979    1.259029
H      -0.054867    3.628133    2.147797
H       2.983053    6.367674    1.076106
H       1.918715    2.356860   -0.128792
