25

C       0.210122    1.539847   -0.177598
C       0.325506    0.014114   -0.122837
C       0.594938   -0.520264    1.287984
C       0.710715   -2.045870    1.347216
C       0.982179   -2.568348    2.772596
C       1.094680   -4.021525    2.843855
C       1.174543   -5.223530    2.872171
C       1.302618   -6.676824    2.921213
C       2.760077   -7.151309    3.066669
H       1.131532    2.019483    0.171290
H       0.018141    1.890424   -1.196521
H      -0.607963    1.898191    0.457297
H      -0.597238   -0.437950   -0.509944
H       1.128748   -0.317605   -0.793988
H       1.518733   -0.068375    1.676485
H      -0.208595   -0.188465    1.960861
H      -0.210731   -2.505782    0.970164
H       1.516343   -2.385859    0.685291
H       1.903573   -2.108581    3.155780
H       0.179338   -2.227670    3.440857
H       0.706747   -7.068759    3.755896
H       0.866614   -7.112985    2.012899
H       2.806240   -8.244187    3.098519
H       3.366693   -6.804811    2.225460
H       3.205533   -6.760372    3.985578
