20

C      -0.255740    1.368405   -0.069822
C       0.032233   -0.120028    0.074503
C       0.866465   -0.838004   -1.019374
O       1.875667   -1.190662   -0.000011
C       1.181683   -0.516223    0.980083
N       1.461244   -0.308170    2.185333
C       0.295776   -2.037621   -1.701182
C      -0.313845   -1.886133   -3.076687
C       0.987885   -2.621853   -2.907703
H       0.650427    1.922595   -0.333964
H      -1.008092    1.550118   -0.843790
H      -0.630415    1.772600    0.874544
H      -0.882665   -0.669766    0.317019
H       1.318783   -0.151546   -1.744728
H       2.358262   -0.728178    2.436005
H      -0.186949   -2.742137   -1.029430
H      -1.209086   -2.455189   -3.298911
H      -0.287129   -0.905292   -3.540231
H       1.895097   -2.137321   -3.252838
H       0.991261   -3.700213   -3.016194
