20

C      -0.027897    1.449156   -0.201784
C      -0.013822   -0.062693    0.066834
C       0.754858   -0.419183    1.343962
N      -1.372569   -0.625292    0.092509
C      -2.006103   -1.154806   -1.100433
C      -3.387741   -1.528262   -0.540650
O      -3.545382   -0.699910    0.615656
C      -2.319849   -0.226469    1.006696
O      -2.165421    0.429234    2.004198
H       0.994358    1.829422   -0.290295
H      -0.554876    1.681287   -1.133102
H      -0.524976    1.971729    0.618900
H       0.478169   -0.562271   -0.776111
H       0.774344   -1.502675    1.493002
H       1.786669   -0.062674    1.268611
H       0.283970    0.041930    2.213513
H      -2.074775   -0.400777   -1.899464
H      -1.470042   -2.022719   -1.497095
H      -4.208155   -1.327060   -1.231832
H      -3.426553   -2.579626   -0.233157
