20

C      -0.485742    1.458837   -0.016452
C       0.111722    0.064185   -0.055562
O       1.150965    0.019820   -1.080086
C       2.178841   -0.657952   -0.528672
C       3.355049   -0.953405   -1.410317
O       4.373712   -1.607275   -0.701572
N       2.114685   -1.006481    0.691108
C       0.843461   -0.475832    1.220554
C       1.121151    0.535672    2.334841
H       0.261953    2.207521    0.256185
H      -0.891852    1.720575   -0.997234
H      -1.302139    1.501832    0.710817
H      -0.654520   -0.653709   -0.370924
H       3.008796   -1.563582   -2.259399
H       3.716456   -0.005036   -1.837313
H       4.037041   -1.720625    0.199714
H       0.266302   -1.304166    1.645399
H       1.719400    1.376999    1.972828
H       0.192109    0.926419    2.761005
H       1.685165    0.045973    3.132772
