21

O       0.601854    1.123006   -0.521624
C       0.367092   -0.241817   -0.251334
C      -1.077702   -0.475700    0.191683
N      -1.957252    0.054805   -0.851282
C      -2.591271   -0.876208   -1.779683
C      -3.404637   -0.134347   -0.771222
C      -4.063060   -0.848664    0.366861
C      -4.841343   -0.070776    1.365929
N      -5.532615   -0.941307    0.400589
H      -0.176104    1.413479   -1.017445
H       0.581310   -0.870968   -1.132653
H       1.056165   -0.545612    0.544180
H      -1.239478   -1.544679    0.401721
H      -1.267544    0.086779    1.112605
H      -2.598359   -0.585889   -2.826809
H      -2.445658   -1.941707   -1.603536
H      -3.969095    0.737253   -1.108971
H      -3.572465   -1.760972    0.695458
H      -4.890259   -0.402313    2.399075
H      -4.897525    1.006931    1.232261
H      -5.930049   -0.379491   -0.349802
