17

O       0.328830    1.268402   -0.391424
C       0.105378   -0.070921   -0.003708
C      -1.375247   -0.336848    0.260197
N      -2.116408   -0.003359   -0.958401
C      -2.470879   -1.090605   -1.855420
C      -3.533846   -0.390873   -1.058640
C      -4.200788   -1.075151    0.015116
C      -4.781911   -1.613554    0.920234
H      -0.372700    1.470676   -1.024221
H       0.471502   -0.778539   -0.767801
H       0.682592   -0.248818    0.909948
H      -1.533519   -1.375456    0.587404
H      -1.727979    0.326531    1.056819
H      -2.381050   -0.889433   -2.919245
H      -2.223352   -2.105676   -1.550892
H      -4.145775    0.350272   -1.568039
H      -5.293745   -2.096867    1.715454
