19

C      -0.055485    1.548025    0.002282
C      -0.205578    0.034841   -0.117333
N       0.909500   -0.525605   -0.876936
C       0.909341   -1.953817   -1.060312
C      -0.370762   -2.528837   -1.552833
N      -1.376426   -2.943884   -1.945878
C       2.007683   -2.351447   -2.092108
C       2.459423   -3.790449   -2.065696
O       2.438153   -1.522847   -2.851094
H       0.893922    1.808193    0.478467
H      -0.081771    2.023711   -0.984558
H      -0.872632    1.968532    0.594973
H      -0.193287   -0.419599    0.882195
H      -1.185267   -0.211359   -0.560260
H       1.024350   -0.078163   -1.781151
H       1.130543   -2.456080   -0.107803
H       1.599322   -4.467239   -2.048635
H       3.087572   -3.999335   -2.931834
H       3.033490   -3.972265   -1.149143
