20

C      -0.421899    1.211658    0.119807
O       0.545470    0.208275   -0.119095
C       0.991654   -0.409667    1.045032
C       0.178212   -1.540804    1.643272
C       1.456103   -1.818208    0.897527
C       1.602475   -2.648926   -0.379990
N       2.815677   -3.360247    0.176822
C       3.814117   -2.307628    0.439285
C       2.713437   -2.475879    1.411303
H      -0.018135    2.021090    0.746560
H      -0.704591    1.624002   -0.851613
H      -1.315491    0.804649    0.614096
H       1.526490    0.248607    1.733561
H       0.167604   -1.654972    2.722996
H      -0.749974   -1.804134    1.144988
H       0.792735   -3.364448   -0.540125
H       1.796070   -2.101414   -1.307764
H       4.788419   -2.708642    0.702424
H       3.837156   -1.426799   -0.199682
H       2.858218   -2.874067    2.411104
