21

O      -0.150877    1.406051   -0.218474
C      -0.030395   -0.008454   -0.177199
C      -1.420293   -0.594078    0.029308
C      -1.411031   -2.123529    0.108598
C      -2.814959   -2.688328    0.251246
O      -3.650991   -2.419107   -0.905535
C      -3.765339   -3.820213   -1.220993
C      -2.993166   -4.213769    0.058566
O      -1.778534   -4.908328   -0.093369
H       0.723429    1.777400   -0.366986
H       0.401233   -0.399516   -1.113354
H       0.634838   -0.327006    0.643063
H      -1.843843   -0.168277    0.947677
H      -2.066578   -0.273759   -0.794696
H      -0.943646   -2.551621   -0.784759
H      -0.814219   -2.462757    0.965303
H      -3.290001   -2.293019    1.159649
H      -4.811244   -4.143430   -1.290007
H      -3.236308   -4.086519   -2.145541
H      -3.623674   -4.677212    0.827233
H      -1.970908   -5.847037   -0.176431
