18

C       0.363030    1.512796   -0.010617
C       0.116832    0.017036    0.052549
N       0.975203   -0.810926   -0.853044
C       1.333605   -1.730531    0.260756
C       2.626499   -1.228617    0.916342
O       3.796897   -1.414062    0.856017
O       1.959262   -0.327467    1.726726
C       0.636969   -0.790695    1.274475
C      -0.257160   -1.145031    2.427588
H       1.413962    1.736582    0.183985
H       0.105917    1.898028   -1.002242
H      -0.252219    2.038808    0.727513
H      -0.951925   -0.201759   -0.080667
H       0.466774   -1.267440   -1.600242
H       1.169866   -2.800387    0.134818
H      -0.505024   -0.249429    3.007701
H      -1.190905   -1.588199    2.069341
H       0.234340   -1.856217    3.097482
