22

C       0.354719    1.494104   -0.633210
C       0.277611    0.012629   -0.336746
C       1.521831   -0.764227    0.040559
C       0.447517   -0.504383    1.061261
C       0.631446    0.281329    2.367737
C       0.151558   -0.985125    3.142624
C      -0.841088   -0.804274    4.280177
C      -0.360729   -1.582158    1.795271
H       1.088577    1.988389    0.011897
H       0.650971    1.677925   -1.672070
H      -0.611196    1.986378   -0.470988
H      -0.442120   -0.530490   -0.946803
H       1.638892   -1.774140   -0.341173
H       2.453502   -0.211811    0.130591
H       1.633428    0.654880    2.597499
H      -0.078469    1.111664    2.463489
H       1.019067   -1.554324    3.492797
H      -1.717199   -0.234269    3.949384
H      -1.195877   -1.770033    4.657860
H      -0.390970   -0.263508    5.120542
H      -1.442911   -1.451297    1.675094
H      -0.112409   -2.626757    1.585478
