20

C      -0.133207    1.458605    0.002478
C       1.290777    0.977038    0.137487
C       0.161980   -0.020406    0.054169
C      -0.229044   -0.831480    1.263128
C      -1.573757   -1.548683    1.097704
C      -0.924895   -2.781099    0.591206
C       0.384926   -2.264509    1.308390
C      -0.243549   -2.849800    2.581179
N      -1.593524   -2.808190    1.922479
H      -0.597107    1.911914    0.872674
H      -0.444955    1.891522   -0.941548
H       1.952908    1.079422   -0.715132
H       1.780570    1.109808    1.096851
H       0.067354   -0.555606   -0.887869
H      -0.093089   -0.233097    2.174332
H      -2.538740   -1.126702    0.847904
H      -1.143763   -3.467525   -0.215636
H       1.421678   -2.430279    1.020747
H       0.014995   -3.896486    2.761289
H      -0.155656   -2.279185    3.514070
