17

O       0.044893    0.082490   -0.154938
C       0.086330    1.265597   -0.057963
O      -0.985474    2.133843    0.083850
C      -0.096814    3.267726    0.201573
C      -0.307357    4.674284   -0.310030
C       0.652806    5.135182    0.844042
C       0.510442    3.741766    1.551334
C       1.694632    2.754486    1.387889
C       1.141425    2.374403   -0.028453
H      -0.030536    4.896123   -1.343690
H      -1.331301    5.016000   -0.133252
H       1.669569    5.343823    0.502864
H       0.299246    5.985642    1.427612
H      -0.054921    3.747679    2.482812
H       2.685432    3.214499    1.367660
H       1.711511    1.925295    2.098598
H       1.796421    2.431185   -0.897110
