20

C      -0.011107    1.545415   -0.067296
C       1.523137    1.335587    0.041150
C       1.214573    0.032046    0.869410
C      -0.068589    0.027888    0.027779
N      -1.228902   -0.778419   -0.322160
C      -0.019274   -0.808120   -1.189030
C       0.202943   -0.119943   -2.484467
C       1.241057    0.724287   -2.537571
C       2.149621    1.127928   -1.374552
H      -0.422889    2.011572    0.833440
H      -0.411507    2.032340   -0.956083
H       2.096259    2.094232    0.578856
H       1.889700   -0.823596    0.776937
H       1.069884    0.279326    1.926551
H      -1.281705   -1.649539    0.201335
H       0.580859   -1.714708   -1.080776
H      -0.385934   -0.347175   -3.369088
H       1.496664    1.180254   -3.492163
H       2.618317    2.077651   -1.656797
H       2.982750    0.412524   -1.301692
