17

O      -0.159830    0.003904   -0.128538
C      -0.099174    1.182293    0.146724
C       1.207647    1.965547    0.158170
C       2.406800    1.041691   -0.106015
C       3.665997    1.779845   -0.154061
N       4.653630    2.378585   -0.191526
N      -1.202881    1.915738    0.565155
C      -1.780780    3.054991   -0.128034
C      -2.519830    1.754549   -0.001582
H       1.160355    2.753920   -0.602185
H       1.310194    2.479953    1.118677
H       2.467831    0.274324    0.671655
H       2.263644    0.505329   -1.048547
H      -2.052972    3.903493    0.493104
H      -1.381834    3.310644   -1.106937
H      -2.602275    1.124999   -0.883233
H      -3.334499    1.666484    0.710779
