18

C       0.841689   -0.479117    1.328740
C       0.099261   -0.035190    0.062523
C      -1.327166   -0.593924   -0.023062
C      -2.153945   -0.044178    1.052685
N      -2.730156    0.440119    1.930055
C      -2.097729   -0.738870   -1.384543
C      -1.187542   -1.920083   -1.796084
C      -1.630640   -2.107022   -0.326751
O      -2.996367   -1.712609   -0.730857
H       1.839083   -0.032386    1.364084
H       0.302818   -0.174217    2.230295
H       0.961665   -1.567279    1.358453
H       0.034904    1.058578    0.036484
H       0.666940   -0.331712   -0.822585
H      -2.553266    0.046663   -1.986616
H      -1.661435   -2.616191   -2.487104
H      -0.137709   -1.744900   -2.030758
H      -1.528108   -2.963173    0.338911
