21

C       0.243518    1.693642    0.014561
C      -0.148543    0.227245   -0.200735
N       0.635357   -0.362130   -1.273553
C       1.677820   -1.071958   -1.073571
C       2.229655   -1.443993    0.288323
O       2.236491   -0.711193    1.245376
N       2.313886   -1.710492   -2.132034
C       1.730585   -1.532454   -3.452069
C       3.767415   -1.804797   -2.128181
H       1.260386    1.753770    0.410745
H       0.199590    2.248131   -0.927532
H      -0.436355    2.168374    0.729108
H      -0.062192   -0.308699    0.752345
H      -1.199133    0.179886   -0.512322
H       2.588037   -2.494399    0.366971
H       1.891817   -0.518637   -3.847253
H       2.186811   -2.254433   -4.135838
H       0.654819   -1.699166   -3.400787
H       4.150070   -1.950508   -1.115666
H       4.083359   -2.659735   -2.734178
H       4.243726   -0.899624   -2.536942
