22

C      -0.051891    1.632359    0.295676
C       0.033357    0.122003    0.060939
C       0.715732   -0.616145    1.217576
C       0.779965   -2.150028    1.037996
C       1.587979   -2.857354    2.143557
C       0.510383   -3.180086    3.185457
O      -0.700146   -3.361771    2.432921
C      -0.587839   -2.793661    1.193886
N      -1.505573   -2.808592    0.324460
H       0.941798    2.075564    0.429606
H      -0.529403    2.137957   -0.549281
H      -0.638118    1.861884    1.192809
H      -0.966161   -0.295442   -0.094643
H       0.590628   -0.076557   -0.864190
H       1.743746   -0.246254    1.329343
H       0.202731   -0.377219    2.159677
H       1.167439   -2.370228    0.040386
H       2.028206   -3.783860    1.762724
H       2.393232   -2.241935    2.551520
H       0.697337   -4.098475    3.747001
H       0.365252   -2.359832    3.899185
H      -2.332410   -3.286377    0.688506
