13

O       0.035385   -0.292135    0.315158
C      -0.013399    0.913310    0.249499
C       1.146570    1.762123    0.113373
C       2.097869    2.497267    0.001494
C       3.260400    3.343738   -0.132691
C       3.922567    3.437976   -1.531613
C       3.527536    4.911130   -1.434675
O       3.633731    5.896575   -2.084002
O       2.931486    4.778322   -0.199836
H      -0.973527    1.464639    0.289989
H       3.963170    3.171779    0.686987
H       4.996156    3.250749   -1.562779
H       3.421252    2.887900   -2.328075
