19

C       0.145335    1.633784   -0.401490
C       0.239003    0.132662   -0.227419
C       1.490548   -0.642167   -0.365772
O       2.624094    0.042726    0.137933
C       2.105567   -0.035685    1.509476
C       2.204046    1.244138    2.310168
C       0.775118   -0.600863    1.011642
C       0.029799   -1.659456    1.692962
O       0.291675   -2.066124    2.802864
H       1.125716    2.098550   -0.288061
H      -0.219794    1.864411   -1.407681
H      -0.546009    2.084368    0.317038
H      -0.615557   -0.419688   -0.619733
H       1.657696   -1.479661   -1.034975
H       2.646440   -0.836511    2.026743
H       1.628618    2.061574    1.874336
H       1.831624    1.056747    3.322515
H       3.250716    1.555540    2.386601
H      -0.819257   -2.083825    1.108533
