18

C       0.036770    1.621575    0.080382
C       0.105981    0.101583    0.035793
C       1.167597   -0.639143   -0.771519
C       2.435603   -0.758266    0.023520
N       1.280960   -1.752216    0.199560
C       0.688115   -0.701015    1.230448
C      -0.112068   -1.133275    2.420391
C       2.130883   -0.198516    1.370587
O       2.779348    0.220454    2.287798
H       1.004083    2.064866    0.335688
H      -0.273538    2.023789   -0.889612
H      -0.692998    1.956923    0.824797
H      -0.871043   -0.322405   -0.224587
H       1.185980   -0.829351   -1.839982
H       3.383608   -1.048529   -0.410441
H       0.476588   -1.787517    3.069756
H      -0.407601   -0.257138    3.007367
H      -1.017816   -1.665400    2.115002
