16

C       0.048544    1.473292    0.108695
C      -0.034018   -0.025540   -0.156463
N      -1.401017   -0.501931    0.047272
C      -1.697779   -1.834142    0.031834
C      -2.878895   -2.525341   -0.085617
C      -2.468446   -3.871464    0.051119
N      -1.177986   -4.011934    0.228324
O      -0.678334   -2.684849    0.211518
H       1.072964    1.826864   -0.034923
H      -0.594047    2.035320   -0.579210
H      -0.260252    1.706817    1.131579
H       0.322990   -0.253466   -1.172292
H       0.613810   -0.570798    0.534569
H      -2.123451    0.083674   -0.344001
H      -3.869145   -2.131662   -0.236411
H      -3.082969   -4.761510    0.025359
