25

C       2.631033    1.970875   -0.130888
O       1.385149    1.378973   -0.439818
C       1.512072    0.183773   -1.149549
C       1.578903   -1.132125   -0.395168
C       1.645576   -1.162365    1.117581
C       0.318210   -0.724860   -1.150727
C      -0.984521   -0.335574   -0.468316
C      -1.761254    0.667222   -1.335622
C      -1.829829   -1.581097   -0.163822
H       3.248131    1.319633    0.503499
H       3.200737    2.205251   -1.043148
H       2.423290    2.900742    0.404063
H       2.095855    0.284468   -2.066694
H       2.167396   -1.909550   -0.876981
H       1.206237   -0.265135    1.558612
H       1.120555   -2.032708    1.526227
H       2.686108   -1.220612    1.455878
H       0.156795   -1.256260   -2.087852
H      -0.749958    0.162403    0.477587
H      -2.004876    0.234444   -2.313726
H      -2.704101    0.953716   -0.857056
H      -1.170795    1.572243   -1.500997
H      -1.289981   -2.286805    0.475276
H      -2.762200   -1.309902    0.342937
H      -2.096601   -2.107273   -1.088474
