22

C      -0.179445    1.564122    0.301448
C      -0.092362    0.053433    0.068694
C      -1.463101   -0.634181    0.057048
C      -1.383966   -2.145520   -0.163849
C      -0.990579   -2.971060    1.099876
C      -2.493850   -3.275847    1.348562
C      -2.766940   -2.876817   -0.124158
O      -3.945596   -2.191781   -0.467657
H       0.812129    2.027463    0.294926
H      -0.779413    2.050600   -0.475769
H      -0.645536    1.790567    1.267102
H       0.412172   -0.143233   -0.886359
H       0.538947   -0.400787    0.842995
H      -1.976634   -0.415553    1.005909
H      -2.082219   -0.192121   -0.735207
H      -0.788603   -2.343301   -1.061684
H      -0.421339   -3.869689    0.849311
H      -0.457754   -2.436802    1.890457
H      -2.777696   -4.281732    1.666539
H      -2.943477   -2.557034    2.042242
H      -2.746969   -3.757556   -0.773076
H      -4.031564   -1.433061    0.118600
