18

C       0.159054    1.460359   -0.057973
C      -0.039985   -0.060807    0.071411
C       0.659845   -0.579406    1.250819
N       1.226714   -0.992564    2.168961
C      -1.548559   -0.451002    0.147944
O      -2.170767    0.198555    1.212816
C      -2.279768   -0.126327   -1.164801
C      -1.810907   -0.775425   -2.444637
O      -3.224454    0.631802   -1.123543
H       1.221438    1.712066   -0.067505
H      -0.291257    1.826587   -0.985506
H      -0.317423    1.967795    0.782121
H       0.398651   -0.567325   -0.797276
H      -1.602475   -1.544144    0.282364
H      -2.897395    0.706988    0.814104
H      -1.537076   -1.822785   -2.286741
H      -2.592859   -0.698787   -3.201026
H      -0.918420   -0.257852   -2.816319
