20

C       0.248959    1.529514    0.039687
C       0.095053    0.011391    0.050230
O      -1.230405   -0.400762    0.371618
C       0.498886   -0.607903   -1.283293
O       1.906829   -0.347626   -1.607940
C       2.184669   -1.701039   -1.673750
N       3.263663   -2.299460   -1.893645
C       0.761556   -2.136406   -1.379506
C       0.539900   -3.048157   -0.177677
H       1.283453    1.809598   -0.176090
H      -0.388044    1.978869   -0.733320
H      -0.038862    1.946662    1.008215
H       0.725349   -0.408778    0.840968
H      -1.837629    0.088162   -0.195206
H      -0.140499   -0.212808   -2.083141
H       4.031517   -1.642900   -2.044568
H       0.289303   -2.568841   -2.266518
H       1.065769   -2.687849    0.710460
H      -0.523559   -3.119492    0.062097
H       0.922311   -4.047369   -0.402557
