21

C       0.501908    1.393548   -0.052973
C       0.154841   -0.084875   -0.036687
O       0.745235   -0.694558   -1.178612
C       0.478547   -2.064574   -1.295320
C       1.093863   -2.562312   -2.615381
C       2.137377   -3.606199   -2.185910
O       3.286277   -3.510095   -3.007418
C       2.368521   -3.225094   -0.712556
O       1.085786   -2.821435   -0.253475
H       1.586065    1.533757   -0.017563
H       0.125593    1.869239   -0.963215
H       0.059024    1.897232    0.811560
H       0.524720   -0.566806    0.877303
H      -0.938081   -0.228628   -0.065153
H      -0.601969   -2.242781   -1.199209
H       0.342032   -2.967462   -3.294234
H       1.601940   -1.732335   -3.110992
H       1.706453   -4.616594   -2.235131
H       3.874038   -4.240097   -2.789880
H       2.708372   -4.049348   -0.079261
H       3.100482   -2.405559   -0.663409
