16

O       0.125629    1.376252   -0.109578
C       0.024883    0.000386   -0.060074
C      -0.451819   -0.662777    1.202802
N      -0.879316    0.188905    2.272448
C      -2.044203    0.938202    2.315014
O      -2.334346    1.592230    3.301266
C      -2.887335    0.873936    1.103005
C      -2.591087    0.097118    0.053758
C      -1.353763   -0.691210   -0.024420
H       0.067791    1.708758    0.796529
H       0.783520   -0.507852   -0.648552
H       0.017165   -1.584021    1.532974
H      -0.371255    0.164574    3.144169
H      -3.793925    1.464434    1.152241
H      -3.278058    0.030294   -0.785751
H      -1.412469   -1.624388   -0.574999
