18

O      -0.951592    1.253436   -0.009745
C       0.192190    0.864250   -0.078810
C       1.375718    1.736087    0.015054
C       1.297272    3.127627    0.609188
C       1.676140    3.015888   -0.824672
C       3.086328    2.440054   -1.013476
C       4.228408    2.788244   -0.019999
C       3.787797    1.538125    0.795382
N       2.731828    1.206968   -0.225582
H       0.444998   -0.204979   -0.248043
H       0.273772    3.441084    0.784815
H       2.008591    3.442046    1.365643
H       1.055120    3.415654   -1.616576
H       3.365422    2.276886   -2.057429
H       5.226549    2.713466   -0.455122
H       4.140107    3.751982    0.486472
H       4.536218    0.744326    0.860031
H       3.398269    1.730299    1.799595
