14

C       0.027447    1.481171    0.025657
N       0.189694    0.038793   -0.004509
C       0.622706   -0.720398   -1.025865
N       0.714023   -2.004110   -0.899140
C       1.161652   -2.716041   -1.977179
N       1.300142   -3.969917   -1.996006
O       1.489147   -1.977293   -3.149399
N       1.359545   -0.593521   -3.195837
N       0.950965    0.014788   -2.199215
H       0.657165    1.922664    0.805409
H       0.317111    1.894549   -0.938167
H      -1.015850    1.746563    0.227081
H      -0.040362   -0.492688    0.822777
H       1.646288   -4.280461   -2.902701
