15

C      -0.059249    1.456436   -0.167300
C      -0.045748    0.005534   -0.062301
C      -0.001430   -1.195519    0.028418
C      -0.017923   -2.637298    0.123334
O       0.024281   -3.121163    1.514700
C      -1.277051   -3.572805    1.475893
O      -1.920199   -4.006783    2.372967
C      -1.437614   -3.287903   -0.037132
O      -2.502201   -2.543337   -0.511993
H       0.955751    1.851756   -0.278721
H      -0.644227    1.783145   -1.033509
H      -0.500618    1.910413    0.726112
H       0.784682   -3.105876   -0.450447
H      -1.401196   -4.216577   -0.612834
H      -2.451366   -1.659913   -0.124149
