12

O       0.265823    0.102453   -0.113693
C       0.378969    1.280643   -0.241821
O       0.575238    2.104747    0.818580
C       0.763342    3.474873    0.540503
C       2.132567    3.757658   -0.084712
O       2.832302    2.877809   -0.526970
C       2.489155    5.160577   -0.129968
C       2.749698    6.335492   -0.147425
H       0.307488    1.822994   -1.202385
H      -0.008788    3.871857   -0.135845
H       0.669103    4.009714    1.488909
H       2.999922    7.369029   -0.174165
