16

O       0.205156    1.309882   -0.354788
C       0.104501   -0.103966   -0.361097
C      -1.292441   -0.569743    0.032398
C      -2.392182   -0.460630   -1.049893
O      -2.534184   -1.895684   -1.127072
C      -1.595068   -2.094928   -0.056648
C      -0.465959   -3.026686   -0.449776
O       0.498832   -3.231763    0.241269
H      -0.331203    1.653334   -1.076521
H       0.384536   -0.523243   -1.341317
H       0.836922   -0.469811    0.363850
H      -1.560142   -0.121372    0.990560
H      -3.322652    0.022662   -0.730848
H      -2.080487   -0.032608   -2.013028
H      -2.074486   -2.501966    0.845352
H      -0.608407   -3.508925   -1.443316
