17

O      -0.001952    0.074411   -0.581884
C      -0.067854    1.218539   -0.228162
C      -1.229151    2.173503    0.115123
C      -1.478930    2.322466    1.637796
O      -0.462563    3.340732    1.767201
C      -0.164730    3.293307    0.357023
C       0.948143    2.306278   -0.000564
C       2.334423    2.165630    0.578848
C       2.179564    2.533330   -0.859228
H      -2.080970    2.227524   -0.560273
H      -2.470609    2.719052    1.883017
H      -1.279389    1.440425    2.256764
H      -0.162159    4.279772   -0.111012
H       2.639303    2.930584    1.284520
H       2.654969    1.158209    0.822039
H       2.382754    1.779646   -1.612613
H       2.382376    3.555497   -1.160924
