13

C       0.003939    1.412720   -0.024112
O       0.014131   -0.019223   -0.021582
C       0.605381   -0.602304   -1.055261
N       1.177150    0.032582   -2.072753
N       1.617941   -0.976299   -2.834546
N       1.387271   -2.195720   -2.409992
C       0.730951   -2.002181   -1.255774
C       0.273857   -3.060448   -0.434126
N      -0.112914   -3.901308    0.260268
H       1.025165    1.805201   -0.023952
H      -0.525509    1.792606   -0.902931
H      -0.515467    1.704536    0.888007
H       2.106664   -0.803783   -3.698518
