17

C       0.042825    1.276799   -0.365535
O      -0.019603    0.024147    0.281602
C      -1.264132   -0.596643    0.186004
C      -1.702333   -1.285520   -1.151906
O      -0.582148   -2.143714   -1.497077
C      -0.962083   -2.935840   -0.373538
C      -2.363534   -2.417463   -0.289611
C      -1.363551   -1.990452    0.777768
O      -1.388048   -2.360780    2.101109
H       1.036003    1.690714   -0.177406
H      -0.099737    1.184521   -1.451835
H      -0.713336    1.974675    0.027193
H      -2.076570    0.046990    0.558229
H      -2.127438   -0.745841   -1.994378
H      -0.539718   -3.922077   -0.233738
H      -3.344694   -2.866088   -0.241397
H      -0.479424   -2.382898    2.422606
