20

C      -0.030541    1.555598   -0.048295
C       0.044772    0.028899   -0.004461
C       0.690253   -0.551173   -1.270166
O       0.708893   -1.967721   -1.260562
C       1.466526   -2.485873   -0.180955
C       0.885853   -2.057729    1.168027
C       0.784173   -0.514842    1.251065
C       2.117163    0.084156    1.395337
N       3.169184    0.550929    1.507616
H       0.966184    2.002968   -0.116494
H      -0.610965    1.888471   -0.914496
H      -0.513666    1.953067    0.850148
H      -0.971992   -0.379987    0.053669
H       0.117527   -0.257699   -2.154864
H       1.713777   -0.154011   -1.382313
H       1.444897   -3.574302   -0.282658
H       2.516225   -2.157496   -0.258922
H      -0.123638   -2.469245    1.273222
H       1.496386   -2.449546    1.987407
H       0.215820   -0.234076    2.146018
