18

N      -0.041259    1.323812    0.031360
C       0.010109   -0.048858    0.019798
O       1.068524   -0.654505    0.023528
C      -1.298551   -0.735708    0.033898
C      -1.499193   -2.061572   -0.008127
C      -3.018779   -2.204363    0.031444
C      -3.430439   -1.077161   -0.982651
C      -2.735981   -0.179465    0.097187
C      -3.364706   -1.155655    1.148998
H       0.831101    1.807317   -0.110878
H      -0.890027    1.816071   -0.186548
H      -0.759107   -2.846825   -0.057227
H      -3.454590   -3.201999    0.007967
H      -2.982530   -1.107471   -1.978591
H      -4.512724   -0.926655   -1.043589
H      -2.895660    0.898190    0.147098
H      -4.440826   -1.011898    1.286452
H      -2.856078   -1.256601    2.110208
