14

O      -0.134559    1.422572    0.063301
C       0.001402    0.075721    0.001343
C      -1.055367   -0.987543   -0.080228
C      -0.404332   -1.642538   -1.294619
C       0.906792   -0.976960   -0.804096
O       1.209189   -1.682148    0.429673
C       0.082848   -1.044699    1.013388
C      -0.163355   -1.094438    2.410720
N      -0.372196   -1.100530    3.549259
H       0.642764    1.802811    0.491408
H      -2.094503   -0.926879    0.214517
H      -0.386773   -2.732545   -1.366970
H      -0.767347   -1.191758   -2.221162
H       1.777941   -0.812928   -1.432825
