16

O       0.302216    1.220111   -0.448597
C       0.032807   -0.087069   -0.020779
C       0.149909   -0.386535    1.508952
C      -1.365714   -0.664005    1.551328
O      -2.131500    0.556883    1.691570
C      -2.465602    0.566640    0.273057
C      -1.469875   -0.555305   -0.006328
C      -1.879428   -1.762190    2.350460
N      -2.269451   -2.655272    2.972405
H      -0.050177    1.834358    0.204898
H       0.657049   -0.738547   -0.635091
H       0.759027   -1.266109    1.730280
H       0.466611    0.443700    2.144958
H      -3.513910    0.290381    0.114537
H      -2.266494    1.535933   -0.194302
H      -1.751287   -1.374973   -0.663573
