18

C      -0.141884    1.306528   -0.023695
N       0.098684   -0.129398    0.098295
C       1.499186   -0.504673   -0.158976
C       0.946206   -0.488201    1.236944
C       1.006761   -2.032442    1.315224
O       1.635625   -2.471337    2.472933
C      -0.162622   -2.831384    0.680594
O       0.470465   -2.790680   -0.623541
C       1.597809   -2.053859   -0.122458
H       0.705419    1.932702    0.302469
H      -0.360483    1.541021   -1.069727
H      -1.015841    1.572459    0.578565
H       2.164861    0.192540   -0.654625
H       1.119997    0.195216    2.059489
H       1.813802   -3.414406    2.387226
H      -0.236733   -3.862089    1.056449
H      -1.145711   -2.354714    0.678419
H       2.569606   -2.479930   -0.386302
