13

O      -0.009505   -0.036330   -0.001694
C       0.013834    1.166785    0.007982
C       1.256188    1.980316    0.001161
C       1.250320    3.329157    0.012926
C       2.499918    4.106371    0.005394
O       2.531691    5.326354    0.016749
C       3.685970    3.244535   -0.014504
C       3.571499    1.905846   -0.024870
O       2.392472    1.244621   -0.017769
H      -0.907502    1.785195    0.023667
H       0.306759    3.863271    0.028143
H       4.666462    3.704050   -0.020985
H       4.401394    1.210177   -0.039814
