17

N      -0.640093    1.128767    0.227363
C       0.321694    0.064856   -0.103277
C       0.913061   -0.488391    1.150582
C       0.419980   -0.638942    2.410418
N      -0.849235   -0.363646    2.943172
C       1.501008   -1.257341    3.113615
N       1.493671   -1.558907    4.469862
N       2.547176   -1.456143    2.344642
O       2.179793   -0.964884    1.088772
H      -0.139682    1.950423    0.553560
H      -1.146172    1.406555   -0.607239
H      -0.229917   -0.719288   -0.639516
H       1.142433    0.378077   -0.766765
H      -1.377022    0.207046    2.288508
H      -0.779126    0.123790    3.830834
H       0.626077   -1.992035    4.762971
H       2.288186   -2.125505    4.739535
