21

C      -0.089294    1.596043    0.104153
C       0.018241    0.074587    0.037552
C      -1.350383   -0.559427   -0.193752
O      -1.848517   -0.117828   -1.449491
C       1.083038   -0.528462   -0.954605
C       1.733025   -1.257388    0.227478
O       2.161930   -2.574486    0.193533
C       2.202818   -0.279722    1.264654
C       0.734613   -0.649301    1.197063
H       0.888680    2.067547    0.236740
H      -0.534731    1.985434   -0.815217
H      -0.724603    1.904313    0.943006
H      -1.250992   -1.655909   -0.169246
H      -2.028668   -0.269091    0.626349
H      -2.700946   -0.535985   -1.599214
H       0.626684   -1.204893   -1.679203
H       1.715751    0.188865   -1.487796
H       3.087247   -2.583072   -0.075155
H       2.727314   -0.737002    2.098023
H       2.554881    0.714323    0.998880
H       0.236071   -1.103378    2.046692
