15

C      -0.032682    1.539507    0.017117
C       0.004348    0.035388    0.000080
C       0.658723   -0.742517   -1.087143
N       1.275942   -0.679440    0.265123
C       0.929106   -1.834117    1.024270
O       1.656797   -2.684241    1.416928
O      -0.439255   -1.848732    1.285528
C      -1.038807   -0.717341    0.759542
N      -2.232445   -0.372564    0.941118
H       0.818451    1.950257   -0.530297
H      -0.959175    1.887703   -0.446486
H      -0.005360    1.915416    1.043301
H       0.226898   -1.687149   -1.404428
H       1.216564   -0.206261   -1.847374
H      -2.731356   -1.041067    1.529344
