19

C      -0.370514    1.409566    0.026071
C      -0.005075   -0.056993    0.204075
O       0.463741   -0.522733   -1.073962
C       1.100469   -1.728165   -1.152588
N       1.447071   -2.228192   -2.262193
C       1.403504   -2.427421    0.157180
N       1.752278   -1.553219    1.280090
C       2.477245   -0.315130    0.965642
C       1.025842   -0.286893    1.292394
H       0.517356    1.994895   -0.228482
H      -1.105138    1.522693   -0.775198
H      -0.799725    1.808150    0.949922
H      -0.911086   -0.626785    0.462483
H       1.137820   -1.628693   -3.031062
H       0.524938   -3.010850    0.461995
H       2.213158   -3.135590   -0.026479
H       3.206338   -0.012420    1.711018
H       2.771659   -0.127745   -0.063600
H       0.703175    0.047973    2.277222
