15

O      -0.146120    1.447987   -0.018837
C      -0.025085    0.080886    0.010237
C      -1.220514   -0.892431    0.092726
C      -0.420748   -1.854599   -0.702342
C       0.692412   -0.854827   -1.069093
C       1.839357   -1.129746   -0.065187
C       0.771090   -0.843722    1.001693
N      -0.339277   -1.872107    0.800964
H       0.725246    1.841827   -0.141930
H      -2.279766   -0.784483    0.289974
H      -0.716331   -2.769189   -1.201786
H       0.842043   -0.580208   -2.111690
H       2.314646   -2.113894   -0.069613
H       2.603968   -0.345798   -0.089593
H       0.984542   -0.647973    2.051660
