14

O      -0.022576    0.084078    0.004875
C       0.013939    1.267666    0.068804
N      -1.082101    2.229300    0.102244
C      -0.494546    3.429259    0.811675
C       0.915808    3.093784    1.300151
C       1.094792    2.358816   -0.074202
C       2.368292    2.141734   -0.679633
C       3.437120    1.953874   -1.197409
C      -0.149543    3.208285   -0.594200
H      -1.220912    4.100601    1.249219
H       1.537102    3.989761    1.354110
H       1.039973    2.486577    2.201503
H       4.379856    1.778955   -1.654367
H      -0.392810    3.655081   -1.546226
