18

C      -0.119554    1.602780   -0.089847
C       0.068369    0.095119    0.020065
C       1.076190   -0.622556   -0.904299
C       2.492797   -0.262148   -0.557913
C       1.769243   -1.265558    0.303296
C       0.823481   -0.522155    1.221562
C       1.007122   -0.058803    2.598408
O       0.129240   -1.153926    2.280097
H       0.834932    2.136150   -0.042102
H      -0.602135    1.867081   -1.036942
H      -0.754287    1.978349    0.720158
H      -0.902539   -0.409229   -0.036257
H       0.822464   -1.081249   -1.851945
H       3.251212   -0.677962   -1.213624
H       2.743359    0.719239   -0.162818
H       2.111331   -2.282600    0.447309
H       1.909946   -0.328541    3.145399
H       0.509071    0.846571    2.943623
