23

C      -0.051258    1.547479    0.000269
C       0.007789    0.038747   -0.024643
C      -0.014667   -0.626497   -1.183582
C      -0.006575   -2.124234   -1.325212
C      -0.351907   -2.817853   -0.004319
C       0.423976   -2.171356    1.142226
C       0.055611   -0.690785    1.320992
C       1.036866   -0.030100    2.302078
O      -1.259281   -0.704386    1.914846
H       0.866420    1.991629    0.402844
H      -0.205167    1.947402   -1.005165
H      -0.874274    1.920288    0.626091
H      -0.047733   -0.054477   -2.110143
H      -0.709681   -2.419902   -2.114045
H       0.983159   -2.452537   -1.680118
H      -1.423278   -2.712889    0.196800
H      -0.133600   -3.889213   -0.063723
H       0.222080   -2.680751    2.090149
H       1.502149   -2.246575    0.952971
H       2.047253    0.023071    1.882852
H       0.723821    0.986405    2.559923
H       1.073183   -0.612648    3.227218
H      -1.583650    0.201457    1.943012
