16

N      -0.028873    1.292722   -0.077618
C      -0.094017    0.040243   -0.200723
O      -0.689799   -0.692647    0.770840
C      -0.821641   -2.087537    0.528798
C      -1.209146   -2.821720    1.777047
C      -2.298482   -3.573313    1.606507
C      -2.878511   -3.474768    0.220220
C      -2.001337   -2.402134   -0.433935
O      -2.184246   -1.851886   -1.484923
H       0.464839    1.693843   -0.872185
H       0.298083   -0.562890   -1.027912
H       0.111768   -2.476310    0.090435
H      -0.635827   -2.732198    2.691134
H      -2.738153   -4.200499    2.373294
H      -2.800066   -4.410295   -0.349983
H      -3.936009   -3.186845    0.193156
