17

O       0.260223    1.341063    0.341132
C       0.036898   -0.003276    0.135982
C      -0.816350   -0.573380   -0.997084
O      -1.353066   -1.592361   -0.107065
C      -0.668907   -1.009544    1.007108
C       0.828978   -1.106886    0.823460
C       1.494854   -2.255180    0.144050
C       2.956708   -2.352483    0.029928
O       2.248310   -3.132168    0.992757
H       1.148643    1.555879    0.036483
H      -1.604384    0.122767   -1.304320
H      -0.321407   -0.998121   -1.877586
H      -1.185119   -0.952634    1.957554
H       1.372103   -0.719104    1.683173
H       0.883700   -2.774311   -0.591960
H       3.403183   -2.910639   -0.792454
H       3.581781   -1.559158    0.440232
