19

C      -0.098875    1.547076    0.077808
C       0.102465    0.064732    0.042120
N      -0.781614   -0.878799    0.761807
C       0.682634   -0.901271    1.013248
C       1.278505   -1.769070   -0.093145
C       0.666125   -0.765452   -1.160640
C      -0.353711   -1.327886   -2.154425
C       1.723031   -0.031236   -1.849452
N       2.554078    0.562854   -2.392169
H       0.774766    2.070933   -0.321088
H      -0.970450    1.842919   -0.517657
H      -0.262184    1.889535    1.105190
H      -1.216369   -0.352737    1.519624
H       1.078453   -0.732376    2.007075
H       2.368668   -1.779468   -0.111457
H       0.890178   -2.788351   -0.151189
H      -1.153910   -1.819000   -1.598335
H      -0.783534   -0.531323   -2.769114
H       0.117207   -2.054049   -2.823319
