20

N       0.059918    1.394093    0.209653
H      -0.012356    0.472681   -0.230296
H       1.051601    1.620911    0.314065
H      -0.364496    2.083393   -0.414773
C      -0.614243    1.389371    1.584365
C      -2.108219    1.054444    1.494322
C      -2.409188    0.409311    2.884735
C      -1.058562    0.439888    3.643682
C      -0.005970    0.360111    2.525273
C      -0.937441    1.813340    4.450956
O      -1.761744    1.922815    5.363806
O      -0.058645    2.612401    4.032184
H      -0.417703    2.367347    2.038003
H      -2.715833    1.940086    1.288757
H      -2.293211    0.336663    0.681671
H      -3.155786    0.964532    3.453992
H      -2.785093   -0.608958    2.739314
H      -0.977277   -0.380663    4.358485
H       0.037414   -0.635929    2.053412
H       0.981030    0.663706    2.879310
