18

O      -0.075366    1.391584   -0.040044
C       0.030983   -0.010214    0.008052
C       0.359232   -0.765900   -1.313801
C      -0.826938   -1.731050   -1.021087
C      -1.331019   -0.735731    0.060305
O      -1.540254   -1.248481    1.370388
C      -0.389430   -1.163187    2.109878
N      -0.274607   -1.551941    3.303959
C       0.721435   -0.538131    1.280441
H       0.812286    1.765162   -0.065110
H       0.162164   -0.120436   -2.172685
H       1.354796   -1.204538   -1.412633
H      -1.508547   -1.940413   -1.846383
H      -0.515777   -2.677330   -0.572493
H      -2.193213   -0.132977   -0.227014
H      -1.155652   -1.944934    3.639446
H       1.482895   -1.294603    1.069181
H       1.199459    0.264845    1.844876
