16

C       0.007432    1.568919    0.035973
C       0.013274    0.029842   -0.009764
C       0.750352   -0.530718   -1.221660
O       2.165839   -0.281548   -1.146457
C       2.812892   -0.621109   -0.013800
O       4.007507   -0.703553    0.037690
N       1.995829   -0.853007    1.096993
C       0.651871   -0.527414    1.252934
O       0.088361   -0.662387    2.312171
H       1.024103    1.971112    0.008205
H      -0.538270    1.969103   -0.823537
H      -0.479510    1.919118    0.948901
H      -1.018491   -0.333956   -0.021314
H       0.588928   -1.611645   -1.314281
H       0.427746   -0.050955   -2.147519
H       2.490578   -1.138474    1.932070
