19

C       0.027368    1.364277   -0.023882
O       0.003072   -0.041256    0.033284
C      -1.300156   -0.571774   -0.051457
C      -1.193272   -2.097721   -0.006457
C      -2.538873   -2.772858    0.017875
C      -3.417525   -2.668212    1.237071
N      -2.865259   -3.417814   -1.037330
O      -4.140090   -3.997230   -0.914739
H       1.071760    1.677116    0.050105
H      -0.390993    1.743339   -0.969928
H      -0.538909    1.818069    0.805466
H      -1.921364   -0.196500    0.780461
H      -1.790312   -0.257718   -0.988199
H      -0.632205   -2.442361   -0.878020
H      -0.625283   -2.370898    0.891810
H      -4.330751   -2.107254    1.010263
H      -3.739469   -3.664381    1.555254
H      -2.899351   -2.176639    2.062745
H      -4.231277   -4.460071   -1.754048
