8

C      -0.020751    1.385439    0.010467
N       1.116585    2.065397    0.003090
N       2.258460    1.378843   -0.012096
N       2.276277    0.064629   -0.019772
N       1.153435   -0.652755   -0.012730
C      -0.001914   -0.004009    0.002406
H      -0.939643    1.964449    0.022795
H      -0.904771   -0.607820    0.007898
