16

C       0.718826    1.369451   -0.164574
C       0.025934    0.019009   -0.045196
C       0.304657   -0.959625   -1.207064
C       1.491222   -1.795152   -0.687532
C       2.794472   -1.302118   -1.124283
N       3.813547   -0.892509   -1.484323
C       1.352836   -1.671410    0.855807
O       1.885823   -2.348221    1.679543
O       0.497727   -0.668261    1.140376
H       1.792113    1.252862   -0.342168
H       0.291210    1.934418   -0.998669
H       0.579814    1.947576    0.752331
H      -1.047656    0.158649    0.103159
H      -0.552790   -1.618146   -1.363641
H       0.517380   -0.442619   -2.143109
H       1.418209   -2.853369   -0.948898
