16

C       0.011298    1.531653    0.020200
C      -0.090821    0.043515    0.096006
O       1.066754   -0.734080   -0.233615
C       0.487418   -0.936631    1.067116
C       1.314446   -0.703686    2.210474
N       1.957660   -0.526632    3.155441
C      -0.725462   -1.832807    0.951047
C      -1.966631   -1.047583    1.287472
C      -1.320213   -0.837341   -0.056980
H       0.952024    1.875101    0.456551
H      -0.022869    1.859962   -1.024236
H      -0.822043    2.001553    0.550359
H      -0.699939   -2.912045    0.882897
H      -2.891717   -1.615435    1.280767
H      -1.931387   -0.268151    2.043181
H      -1.810476   -1.072865   -0.992653
