16

C       0.125009    1.461570    0.093277
N      -0.193968    0.053070   -0.079103
C       0.528977   -0.702157   -0.982639
C       0.694270   -2.072762   -1.107490
C       0.164600   -3.170999   -0.246022
N       1.460488   -2.300119   -2.212522
N       1.783633   -1.180783   -2.782043
N       1.217627   -0.191357   -2.031384
H       1.182795    1.648902    0.334909
H      -0.124944    2.018327   -0.817154
H      -0.492110    1.867464    0.897140
H      -0.354321   -0.439093    0.787432
H      -0.930802   -3.225361   -0.265344
H       0.554534   -4.125284   -0.606654
H       0.468260   -3.061313    0.803233
H       1.345407    0.768663   -2.303369
