25

C       0.061554    1.557795    0.094504
C      -0.023813    0.036604    0.245793
C      -1.392598   -0.533858   -0.140595
C      -1.486385   -2.055836    0.006992
C      -2.861609   -2.617602   -0.375474
C      -2.944624   -4.124524   -0.246903
C      -3.197983   -4.768459    1.105583
C      -4.251249   -4.811226    0.025636
O      -5.386186   -3.998899    0.134310
H       1.050285    1.934229    0.375601
H      -0.129221    1.864097   -0.940210
H      -0.678189    2.060761    0.727498
H       0.752228   -0.437143   -0.370331
H       0.204078   -0.241775    1.283414
H      -2.170021   -0.060445    0.475780
H      -1.621710   -0.253746   -1.178546
H      -0.712252   -2.529171   -0.613514
H      -1.256133   -2.339195    1.042943
H      -3.639433   -2.160632    0.245337
H      -3.096325   -2.331562   -1.409909
H      -2.269345   -4.667932   -0.904090
H      -2.675411   -5.680913    1.372174
H      -3.388647   -4.094375    1.935237
H      -4.427732   -5.766739   -0.469011
H      -5.937060   -4.354586    0.838971
