20

C      -0.029633    1.587316    0.085675
C       0.005535    0.083446   -0.027795
C       0.003779   -0.506154   -1.226375
C       0.000056   -1.985610   -1.550651
N      -0.817076   -2.827702   -0.689306
C      -0.688642   -2.978791    0.661043
O      -1.411629   -3.722433    1.299478
C       0.394888   -2.123665    1.302061
C       0.038356   -0.627479    1.308278
H       0.857873    1.964928    0.609502
H      -0.080587    2.069535   -0.893632
H      -0.897808    1.916070    0.671494
H       0.016926    0.136823   -2.104120
H      -0.390932   -2.110911   -2.563972
H       1.033174   -2.366394   -1.589029
H      -1.556084   -3.373294   -1.105526
H       0.502150   -2.480584    2.327582
H       1.353739   -2.271386    0.791280
H       0.766086   -0.105040    1.943870
H      -0.928601   -0.488756    1.813616
