18

C      -0.098466    1.615554   -0.271779
C      -0.004977    0.160602    0.201659
C      -1.355885   -0.529569    0.177466
C      -1.885976   -1.208429   -1.060231
C      -1.542082   -2.029897    0.158392
C      -0.392885   -2.992713    0.135115
F       0.529362   -2.698038   -0.800340
F       0.245863   -3.032451    1.318159
F      -0.822052   -4.241438   -0.118032
H       0.879732    2.104361   -0.236254
H      -0.466899    1.672454   -1.301389
H      -0.783465    2.194719    0.357429
H       0.706584   -0.386836   -0.421663
H       0.394874    0.130593    1.223010
H      -2.106973   -0.019736    0.777346
H      -2.932125   -1.105681   -1.324100
H      -1.212236   -1.291478   -1.905963
H      -2.360553   -2.429533    0.747596
