18

O       0.073244    1.419941   -0.254383
C      -0.045221    0.049338   -0.050351
C       0.133302   -0.636613    1.332830
C      -0.887359    0.088851    2.226155
C      -2.107000    0.069544    1.246389
C      -1.443906   -0.680571    0.080725
N      -0.715681   -1.778397    0.820766
C      -2.241160   -1.019755   -1.133475
O      -3.266016   -0.467214   -1.447602
H      -0.451078    1.887397    0.404198
H       0.568120   -0.435968   -0.814583
H       1.110845   -0.874520    1.752652
H      -1.080252   -0.469608    3.143127
H      -0.559659    1.095734    2.503963
H      -2.958279   -0.487204    1.639115
H      -2.460760    1.059450    0.947326
H      -0.158018   -2.301237    0.141708
H      -1.797415   -1.818315   -1.773440
