17

C      -0.027373    1.577829   -0.002297
C       0.014831    0.045299    0.031083
C       0.691017   -0.521955   -1.231808
C       0.981387   -2.016714   -1.177249
O       0.969738   -2.750190   -2.143736
N       1.333142   -2.472249    0.077176
C       1.304859   -1.684331    1.233142
C       0.713411   -0.489272    1.259173
H       0.985037    1.996144   -0.023556
H      -0.561287    1.937665   -0.887564
H      -0.536235    1.975337    0.881905
H      -1.027191   -0.314781    0.048581
H       0.104503   -0.331878   -2.133037
H       1.663522   -0.026128   -1.367739
H       1.620181   -3.437846    0.125841
H       1.790493   -2.126705    2.095131
H       0.709318    0.089552    2.175274
