22

C      -0.015645    1.641530    0.223725
C       0.043298    0.107269    0.072705
C       0.818456   -0.499268    1.262698
C      -1.357334   -0.518791   -0.048305
N      -2.170319   -0.268857    1.139128
C      -3.176358    0.786842    1.047910
C      -3.575369   -0.645759    1.038051
C       0.843140   -0.196061   -1.185451
O       0.457978   -0.839344   -2.128115
H       0.990947    2.073719    0.220695
H      -0.583884    2.104341   -0.589851
H      -0.491590    1.906757    1.170860
H       0.272855   -0.302038    2.188087
H       0.923112   -1.583929    1.155806
H       1.820845   -0.066161    1.346084
H      -1.843094   -0.157271   -0.970209
H      -1.246954   -1.602535   -0.160616
H      -3.311936    1.393833    1.938696
H      -3.260649    1.330739    0.108241
H      -3.925283   -1.055613    0.091717
H      -4.006533   -1.107678    1.921713
H       1.871815    0.238406   -1.173226
