15

N      -0.428133    1.420996   -0.007751
C      -0.349118    0.175331    0.132847
O      -1.206339   -0.626070   -0.558917
C      -1.130671   -2.020997   -0.344905
C      -2.139400   -2.510239    0.710173
C      -1.744668   -2.137270    2.063710
N      -1.398060   -1.830051    3.122370
C      -1.388994   -2.688127   -1.697858
O      -1.880921   -3.777068   -1.816426
H       0.275561    1.886909    0.560932
H       0.352767   -0.383805    0.764102
H      -0.111709   -2.308754   -0.039482
H      -3.123268   -2.087151    0.483903
H      -2.221877   -3.598299    0.626064
H      -1.067262   -2.070379   -2.561116
