25

C      -0.070127    1.581861    0.007882
C      -0.020851    0.051728    0.022886
C       0.792046   -0.504194    1.195176
C       0.846924   -2.031919    1.239440
C       1.666994   -2.557108    2.426159
O       1.055990   -2.217528    3.655714
O      -0.496618   -2.511216    1.370583
C      -0.738176   -3.795207    0.817183
C      -2.198385   -4.147772    1.045926
H       0.934727    2.012679   -0.068764
H      -0.656614    1.954400   -0.837927
H      -0.525085    1.971308    0.925422
H      -1.036311   -0.354421    0.074489
H       0.408528   -0.309966   -0.921730
H       1.823281   -0.130568    1.144701
H       0.381127   -0.147016    2.146343
H       1.282050   -2.412064    0.300833
H       1.794980   -3.648450    2.334747
H       2.667591   -2.111189    2.421371
H       0.115648   -2.399101    3.529010
H      -0.507103   -3.782992   -0.259866
H      -0.086358   -4.552466    1.279294
H      -2.424792   -4.182879    2.115630
H      -2.850231   -3.401461    0.583085
H      -2.426120   -5.126213    0.612579
