11

O      -0.022034    1.315872    0.009755
C       0.035354   -0.024669    0.002286
N       1.194487   -0.608991   -0.007668
N       1.154368   -1.963704   -0.014744
C       0.024072   -2.757778   -0.012388
O       0.056682   -3.974795   -0.019254
C      -1.193079   -1.925326   -0.000844
N      -1.194218   -0.634387    0.006145
H       0.886911    1.644358    0.006177
H       2.056768   -2.420085   -0.022521
H      -2.143856   -2.454734    0.001844
