17

C       0.068352    1.298132    0.580552
C      -0.120365    0.082416   -0.327524
C      -1.549069   -0.454704   -0.276995
O      -2.512548    0.254246   -0.045310
N      -1.669121   -1.789645   -0.548438
C      -2.959206   -2.464226   -0.529209
C      -2.935710   -3.683492    0.273002
C      -2.897778   -4.699804    0.912713
H       1.060169    1.736484    0.440135
H      -0.689061    2.052127    0.358007
H      -0.037886    1.023147    1.634083
H       0.079467    0.359961   -1.371068
H       0.593330   -0.712001   -0.079301
H      -0.842622   -2.350189   -0.674120
H      -3.671542   -1.737489   -0.125387
H      -3.289878   -2.703011   -1.549664
H      -2.879483   -5.591344    1.489438
