17

C      -0.255043    1.598535    0.257711
C      -0.060229    0.123544    0.078942
C       0.133637   -0.581182   -1.098928
N       0.289189   -1.883931   -0.747341
N       0.195663   -2.091931    0.576691
C      -0.004908   -0.876398    1.078626
C       0.200330   -0.164330   -2.510938
C       1.368852   -0.453859   -3.365523
O       0.174793   -1.232245   -3.468537
H       0.697425    2.138208    0.326140
H      -0.816274    2.039450   -0.573065
H      -0.811469    1.808294    1.175917
H       0.356794   -2.659962   -1.385378
H      -0.112169   -0.748571    2.146791
H      -0.411940    0.697490   -2.774999
H       1.582511    0.185875   -4.220459
H       2.225909   -0.965981   -2.932109
