15

N       0.169046    1.524165    0.347366
C      -0.044448    0.132975   -0.017202
C      -1.519891   -0.236116   -0.265539
C      -1.398868   -1.415759   -1.235964
O      -0.215228   -1.149249   -2.020361
C       0.597651   -0.281266   -1.383448
O       1.622890    0.135076   -1.831429
C       0.529488   -0.738803    1.021651
N       0.970432   -1.452666    1.815979
H       1.169493    1.711651    0.346489
H      -0.227832    2.117096   -0.377257
H      -2.066324   -0.480016    0.645189
H      -2.010375    0.613028   -0.752077
H      -1.262816   -2.367307   -0.712117
H      -2.237245   -1.503751   -1.927840
