17

C       0.017938    1.506216   -0.155149
O       1.464446    1.481928    0.103445
C       1.309055    0.226350    0.765861
C       0.859963    0.243480    2.261224
C       0.203669   -1.121597    2.069589
O      -0.794953   -0.779582    1.009723
C      -0.040233   -0.034832    0.085958
C       1.375182   -1.904231    1.471172
C       2.096641   -1.053509    0.715854
H      -0.513815    2.123719    0.575931
H      -0.192689    1.849108   -1.170775
H       1.708524    0.247874    2.945172
H       0.147662    1.030425    2.513790
H      -0.349541   -1.585805    2.881941
H       0.036278   -0.562962   -0.869122
H       1.518923   -2.972154    1.568121
H       2.935602   -1.273196    0.069268
