18

C      -0.049180    1.493217   -0.036120
C       0.025254   -0.006144    0.039570
C      -0.833346   -0.814665    0.979980
C       0.680088   -0.821819    1.130322
C       1.509332   -1.874525    0.428784
C       0.830463   -2.935473   -0.418357
C       1.276727   -1.639506   -1.042786
O       0.342076   -0.601694   -1.208088
H       0.901480    1.914553   -0.378813
H      -0.831117    1.806548   -0.736050
H      -0.285131    1.916214    0.944459
H      -1.391180   -0.265146    1.732005
H      -1.344660   -1.693496    0.606547
H       1.113900   -0.351280    2.004989
H       2.495165   -2.077661    0.828970
H       1.419215   -3.816193   -0.654753
H      -0.228400   -3.129273   -0.298320
H       2.055630   -1.630269   -1.798150
