18

C       0.090411    1.559740   -0.000614
C       0.029273    0.056017   -0.019872
C      -0.091146   -0.650460   -1.175385
N      -0.144045   -2.015418   -1.158228
C      -0.084881   -2.820838   -0.015375
O      -0.141197   -4.039568   -0.110406
C       0.044602   -2.065073    1.227468
C       0.113389   -2.874694    2.487940
C       0.095852   -0.703150    1.192074
H       1.023586    1.918747    0.449299
H       0.028934    1.973223   -1.011123
H      -0.731748    1.988452    0.584563
H      -0.150571   -0.184999   -2.152288
H      -0.233578   -2.531493   -2.022303
H       0.961865   -3.566875    2.457365
H       0.208267   -2.234815    3.368761
H      -0.780083   -3.499215    2.595853
H       0.192469   -0.158585    2.129442
