17

C      -0.091456    1.493385    0.072662
C      -0.027720   -0.020810    0.016880
O       0.689044   -0.465620    1.177571
C       0.832090   -1.798451    1.302303
C       1.429214   -2.435663    2.374549
N       1.977938   -1.993913    3.585484
N       1.308554   -3.746714    2.039612
N       0.707651   -3.916727    0.850831
N       0.404844   -2.718005    0.407673
H       0.913451    1.925390    0.073434
H      -0.631050    1.875553   -0.798797
H      -0.611124    1.828492    0.974969
H      -1.028127   -0.469401    0.014291
H       0.487892   -0.372216   -0.884329
H       2.993987   -1.991907    3.577022
H       1.670442   -1.046994    3.776816
H       1.600931   -4.549125    2.574559
