18

O      -0.096042   -0.001139   -0.290444
C      -0.054566    1.173508   -0.071946
N      -1.077571    2.143641    0.076301
C      -0.161596    3.061906    0.748992
C       0.375563    4.513549    0.756200
C       1.366425    3.843988    1.806569
C       0.142599    3.007205    2.262865
C       2.167002    2.732135    1.045238
C       1.010592    2.302295    0.111443
H      -2.024007    1.926080    0.362216
H       0.779210    4.914328   -0.176522
H      -0.260768    5.251486    1.250357
H       1.914232    4.474424    2.506574
H      -0.576890    3.577476    2.855579
H       0.328290    2.029722    2.718176
H       3.026644    3.105409    0.483434
H       2.522444    1.967831    1.740942
H       1.190037    2.677750   -0.901274
