23

C       0.211690    1.318938   -0.435779
C       0.347719   -0.124497   -0.023766
O       1.647679   -0.579034    0.386677
C       0.579344   -0.618855    1.348785
C       0.743208    0.325622    2.522701
C       0.098569   -2.010992    1.709580
C      -1.283153   -2.063351    2.337153
C       0.521955   -3.158067    0.827412
C       1.141886   -2.991165    2.194721
H       0.694576    1.998382    0.268445
H       0.667164    1.472802   -1.419961
H      -0.846684    1.591340   -0.513344
H      -0.150910   -0.825999   -0.696677
H       1.244168    1.246803    2.222777
H      -0.224428    0.583884    2.964341
H       1.349331   -0.150728    3.300322
H      -2.038001   -1.626371    1.672605
H      -1.576139   -3.098415    2.537377
H      -1.322279   -1.522112    3.288655
H      -0.185846   -3.966384    0.676572
H       1.151370   -2.929886   -0.024163
H       2.172937   -2.655656    2.228265
H       0.866665   -3.686136    2.981308
