11

O      -0.027114    1.315948    0.007595
C      -0.068876   -0.011372    0.001352
N      -1.182856   -0.630380    0.003808
C      -1.114531   -2.023590   -0.004268
N      -2.112380   -2.818603   -0.003178
C       0.237926   -2.600712   -0.014769
N       1.334414   -1.946320   -0.017201
O       1.180490   -0.528803   -0.008549
H       0.898326    1.597743    0.003957
H      -2.977516   -2.272644    0.004503
H       0.347664   -3.680851   -0.021222
