17

C       0.009928    1.557805    0.047728
C      -0.045828    0.033646   -0.053846
N       0.653673   -0.476583   -1.241036
C      -0.031050   -0.831072   -2.356326
N       0.490219   -1.280278   -3.457538
C       1.855623   -1.395512   -3.456680
C       2.648338   -1.077585   -2.399539
C       2.075175   -0.570382   -1.175315
O       2.664500   -0.238976   -0.160604
H       1.047013    1.891322    0.118164
H      -0.458375    2.030111   -0.821358
H      -0.521625    1.888055    0.945078
H       0.437143   -0.417565    0.814895
H      -1.078655   -0.321971   -0.104272
H      -1.111521   -0.721201   -2.290497
H       2.288139   -1.770636   -4.380318
H       3.725150   -1.184161   -2.431494
