17

C       0.242493    1.477359    0.003559
N       0.107909    0.039417   -0.025989
C      -1.145719   -0.659965    0.161860
C      -0.730178   -2.135854   -0.105541
N       0.696740   -2.100548    0.174569
C       1.199921   -0.810284    0.016794
O       2.365856   -0.491499   -0.053432
C      -1.677730   -0.494615    1.586333
O      -2.822482   -0.242559    1.852644
H       1.304016    1.703510   -0.111271
H      -0.316973    1.940316   -0.817618
H      -0.112376    1.909067    0.948455
H      -1.925129   -0.322261   -0.528837
H      -1.260187   -2.835351    0.548434
H      -0.954358   -2.403673   -1.146870
H       1.293669   -2.844270   -0.151976
H      -0.902677   -0.633243    2.374792
