15

C       0.167114    1.400716   -0.278110
C      -0.048319   -0.077942   -0.011994
O       0.724447   -0.919856   -0.937675
C       1.557198   -1.375350    0.060571
O       2.546337   -2.019873   -0.054076
C       0.762026   -0.697412    1.193140
N       1.398331    0.177658    2.128965
C      -1.462226   -0.449735   -0.050778
N      -2.582621   -0.732339   -0.042561
H       1.235638    1.627775   -0.274902
H      -0.249922    1.678084   -1.248776
H      -0.315799    1.991662    0.503666
H       0.149433   -1.435460    1.715787
H       1.483851   -0.243850    3.043996
H       2.321068    0.466840    1.827800
