19

C      -0.045796    1.506824    0.082142
C      -0.015335    0.014720   -0.003268
C       0.046676   -0.754187   -1.100348
C       0.047614   -2.208604   -0.776791
C      -0.742946   -3.221655   -1.583290
C       0.757602   -3.242917   -1.624342
C       0.057467   -2.261138    0.729347
O       1.202038   -1.656707    1.340560
C      -0.007880   -0.871044    1.209232
H       0.831323    1.893174    0.616408
H      -0.067586    1.964033   -0.910800
H      -0.927518    1.857030    0.634121
H       0.125669   -0.386110   -2.118448
H      -1.253517   -4.005604   -1.032286
H      -1.282501   -2.862952   -2.453081
H       1.252653   -2.894149   -2.524232
H       1.281354   -4.040011   -1.108297
H      -0.365570   -3.110900    1.260265
H      -0.461168   -0.567624    2.149346
