21

C      -0.129231    1.540511    0.024710
C      -0.001376    0.025770    0.018745
C      -1.274970   -0.648085   -0.474461
O       1.130219   -0.438472   -0.806161
C       1.653232   -1.177823    0.292763
C       2.070985   -0.264332    1.399847
C       0.607545   -0.670947    1.256316
C      -0.165591   -1.315530    2.365196
O      -0.774381   -0.356045    3.224699
H       0.793624    2.023707    0.352470
H      -0.364007    1.906858   -0.979947
H      -0.937208    1.841535    0.699283
H      -1.506941   -0.302815   -1.486336
H      -1.155597   -1.734502   -0.504506
H      -2.121266   -0.405653    0.176692
H       2.055817   -2.166222    0.100990
H       2.579378   -0.741228    2.233944
H       2.419111    0.735941    1.162260
H      -0.993685   -1.913900    1.972637
H       0.491090   -1.999518    2.926615
H      -0.075304    0.225850    3.542021
