18

N       0.255124   -1.182814    0.409872
C       0.103589   -0.045367    0.273123
C      -0.101160    1.410319    0.092307
C      -0.745803    2.055674    1.334598
C       0.487041    2.332384    2.177530
C       0.442692    2.963997    3.537402
C       0.798715    1.502041    3.397525
C       1.565513    2.663772    1.155902
O       1.138032    2.078423   -0.086938
H      -0.694986    1.553058   -0.816092
H      -1.238465    2.985039    1.028546
H      -1.480477    1.412320    1.821918
H       1.233152    3.659619    3.801080
H      -0.527005    3.220362    3.951321
H       0.070100    0.763244    3.713501
H       1.830261    1.209351    3.562556
H       1.666660    3.745183    0.995909
H       2.546525    2.260383    1.431036
