16

O       0.215416    1.319743    0.140083
C       0.039992    0.027903   -0.395796
C      -1.309150   -0.569468   -0.012702
C      -1.397026   -2.035297    0.354355
N      -1.370749   -1.027504    1.386493
C      -2.451454   -0.801612    2.238950
O      -3.095605   -1.671320    2.764921
C      -2.472234    0.069531   -0.575876
C      -3.426010    0.619182   -1.058118
H       0.200302    1.233490    1.100117
H       0.101752    0.129318   -1.483082
H       0.829502   -0.663701   -0.066908
H      -2.342844   -2.541352    0.185998
H      -0.507457   -2.652303    0.261919
H      -2.600539    0.276153    2.432727
H      -4.272432    1.101214   -1.482120
