16

N      -0.062892    1.240725   -0.454397
C      -0.014282    0.056498   -0.055461
O       1.002042   -0.654047    0.556390
C       0.207773   -1.876257    0.598245
C      -0.545875   -2.026932    1.929664
C      -1.737140   -1.207020    1.348583
C      -1.000612   -1.103390   -0.041236
C      -1.705908   -1.458961   -1.238223
C      -2.305924   -1.779872   -2.229297
H       0.814102    1.733422   -0.277641
H       0.732074   -2.712204    0.138000
H      -0.809604   -3.062961    2.153877
H      -0.021416   -1.599760    2.786066
H      -2.661889   -1.778662    1.270221
H      -1.950574   -0.243675    1.813153
H      -2.829977   -2.047252   -3.113472
