17

N       0.018336    1.446995   -0.149132
C       0.029544    0.041430   -0.035383
C      -1.060980   -0.810360   -0.040413
N      -0.597869   -2.123521   -0.007712
C       0.759463   -2.090747    0.033834
C       1.182446   -0.792654    0.013253
C       2.676951   -0.779467    0.021561
O       3.046487   -2.173689    0.091866
C       1.907445   -3.041956    0.060392
H       0.701459    1.883688    0.458147
H      -0.891075    1.839261    0.061557
H      -2.117127   -0.595267   -0.069710
H      -1.183498   -2.938759   -0.000034
H       3.118070   -0.337823   -0.884855
H       3.119486   -0.262056    0.886251
H       1.927159   -3.695841    0.946366
H       1.960798   -3.692204   -0.827923
