14

N      -0.175583    1.326266    0.274848
C      -0.100716   -0.046294    0.064214
C      -1.081908   -0.975252   -0.237365
O      -2.392814   -0.647424   -0.527100
C      -3.354352   -1.125564    0.313532
O      -4.512944   -0.928689    0.124023
C      -0.432289   -2.227155   -0.266335
N       0.860533   -2.102872    0.002396
N       1.035987   -0.770099    0.202265
H       0.510495    1.857814   -0.248536
H      -1.102397    1.673133    0.058880
H      -2.920555   -1.696837    1.153937
H      -0.856158   -3.196674   -0.482492
H       1.946307   -0.430290    0.462033
