20

O       0.201833    1.372065   -0.067712
C       0.099319   -0.030536    0.065897
C       0.223787   -0.677356    1.491096
C      -1.196257   -1.221329    1.320466
C      -2.146723   -0.060941    1.121222
C      -1.327701   -0.551144   -0.047256
N      -1.790784   -1.056242   -1.302577
C      -3.216392   -1.035926   -1.617259
C      -2.296941   -0.057292   -2.253126
H       1.132536    1.612965   -0.023689
H       0.742866   -0.548588   -0.656313
H       1.001875   -1.442523    1.541929
H       0.359217    0.033867    2.312683
H      -1.547539   -2.197319    1.631480
H      -3.195388   -0.337408    1.103074
H      -1.945439    0.903371    1.581178
H      -3.575359   -1.897739   -2.172445
H      -3.912223   -0.650133   -0.877002
H      -2.353997    0.973634   -1.912890
H      -1.973580   -0.188121   -3.281574
