17

O       0.029198    1.419080   -0.165313
C       0.032934    0.022116    0.022174
C       0.233933   -0.583321    1.460802
C      -1.129492   -1.269615    1.317404
C      -2.248198   -0.247754    1.128071
C      -2.336251    1.089995    1.769156
O      -3.388966    1.579950    2.108680
C      -1.341230   -0.633128   -0.039320
O      -1.867505   -1.212398   -1.173473
H       0.939674    1.730348   -0.193366
H       0.697331   -0.475270   -0.695947
H       1.065689   -1.289874    1.502327
H       0.340175    0.137849    2.273796
H      -1.372763   -2.274279    1.638522
H      -3.222262   -0.719162    1.025711
H      -1.382778    1.632921    1.908158
H      -2.361483   -0.541372   -1.658413
