18

C       0.116449    1.413758    0.046880
N       0.282220   -0.025793   -0.030393
C       0.542542   -0.674021   -1.182777
O       0.638275   -0.146293   -2.280731
C       0.662104   -2.222052   -1.088678
O       1.212183   -2.696160   -2.289690
C       1.427048   -2.652971    0.082585
C       2.036347   -3.008653    1.059157
C       2.789275   -3.459123    2.220779
H       0.951185    1.884787    0.577947
H       0.085428    1.798964   -0.972607
H      -0.816320    1.670753    0.558709
H       0.352357   -0.562919    0.820412
H      -0.374554   -2.590349   -0.975259
H       1.185611   -1.920996   -2.879168
H       3.485496   -4.258013    1.943578
H       3.376641   -2.645620    2.660321
H       2.126112   -3.853045    2.998573
