19

C      -0.016611    1.551336    0.032495
C       0.058105    0.020286    0.006908
C      -1.273120   -0.552050    0.186131
C      -2.378666   -0.998963    0.344277
C       0.802858   -0.678556   -1.146578
C       2.296186   -0.741256   -0.781526
C       2.474018   -0.114722    0.599673
C       1.091549   -0.732206    0.935312
C       1.322471   -1.762562   -0.243005
H       0.952152    2.002493   -0.191307
H      -0.733405    1.904768   -0.714976
H      -0.353464    1.909357    1.010787
H      -3.352899   -1.398556    0.480099
H       0.467830   -0.772143   -2.171771
H       3.040435   -0.880796   -1.555499
H       3.266135   -0.625628    1.154740
H       2.605143    0.967375    0.701241
H       0.806469   -0.968424    1.957828
H       1.280045   -2.839117   -0.307384
