15

N      -0.019595   -1.128595    0.048902
C       0.001239    0.026792    0.026481
C      -0.011460    1.468747    0.042642
C      -0.900697    2.191115    1.057992
O      -0.622610    3.566574    0.742329
C       0.299264    3.459414   -0.309543
C       1.317156    2.300066   -0.073271
N       1.376428    1.975355   -1.540181
C      -0.069692    2.301478   -1.288867
H      -1.965338    1.975881    0.918500
H      -0.623148    1.974513    2.094956
H       0.623013    4.431928   -0.677771
H       2.181482    2.244434    0.587724
H       1.819722    2.748842   -2.045028
H      -0.838311    2.247512   -2.059178
