23

C      -0.007315    1.496008   -0.180350
N      -0.005621    0.055896    0.070312
C      -1.328098   -0.560976    0.050259
C      -1.929560   -0.512659   -1.306786
N      -2.334404   -0.449353   -2.388756
C      -1.325691   -2.015041    0.623395
C      -0.849070   -1.951979    2.084682
C      -2.758406   -2.574808    0.573919
C      -0.388917   -2.918586   -0.198499
H       1.024239    1.857732   -0.176244
H      -0.474379    1.786402   -1.134652
H      -0.542777    2.003860    0.629117
H       0.590949   -0.405227   -0.607966
H      -1.973668    0.042873    0.701239
H      -1.540599   -1.364477    2.699251
H      -0.801506   -2.959593    2.509538
H       0.138972   -1.493295    2.155824
H      -3.125259   -2.665972   -0.452540
H      -2.788307   -3.568713    1.031178
H      -3.454972   -1.934391    1.126635
H       0.655499   -2.600599   -0.116835
H      -0.442033   -3.947781    0.170090
H      -0.668134   -2.929380   -1.257342
