19

C      -0.152669    1.576058    0.023049
C       0.028573    0.057861    0.023625
O      -1.254039   -0.586062   -0.035878
C       0.826906   -0.476107   -1.212478
C       1.453611   -1.764536   -0.667067
O       2.908900   -2.001100   -0.702117
C       2.948999   -2.128858    0.752651
C       1.584743   -1.490778    0.795159
C       0.888233   -0.437635    1.202170
H       0.811231    2.093773    0.054060
H      -0.691074    1.889407   -0.876156
H      -0.735808    1.896677    0.894574
H      -1.693059   -0.444421    0.809484
H       0.174329   -0.606319   -2.078922
H       1.625421    0.227832   -1.463589
H       0.930021   -2.675854   -0.977645
H       3.000733   -3.182723    1.056634
H       3.776827   -1.573552    1.205917
H       0.962124    0.094656    2.143918
