19

C       0.354682    1.506751    0.055841
C       0.149121   -0.008518    0.068626
C      -1.335738   -0.422635   -0.063024
N      -1.946583    0.050290   -1.298985
C      -2.883066    1.055293   -1.302183
N      -3.395919    1.348864   -2.560823
O      -3.203254    1.674848   -0.303239
C      -1.484590   -1.876007    0.057216
C      -1.568559   -3.072758    0.132544
H       1.412834    1.751333    0.188121
H       0.023637    1.943939   -0.890227
H      -0.211161    1.990735    0.857690
H       0.718561   -0.481122   -0.741464
H       0.529192   -0.438138    1.002211
H      -1.904479    0.071658    0.732524
H      -1.684685   -0.404372   -2.158160
H      -3.481773    0.593565   -3.224580
H      -4.212130    1.939392   -2.508058
H      -1.661046   -4.127352    0.216735
