18

C       0.452900    0.942470   -0.481993
N      -0.327725    0.451007    0.661425
C      -1.320886   -0.490933    0.351902
C      -1.329939   -1.779209   -0.124480
O      -0.242590   -2.529287   -0.431087
N      -2.596851   -2.262898   -0.261006
C      -3.398824   -1.279789    0.125615
C      -4.889319   -1.339500    0.149041
N      -2.678113   -0.195251    0.501311
H       1.195650    1.661842   -0.122956
H       0.970799    0.146689   -1.035857
H      -0.214065    1.462227   -1.176165
H       0.296710    0.098992    1.378338
H      -0.583256   -3.378574   -0.736694
H      -5.291041   -1.175863    1.155914
H      -5.340859   -0.590041   -0.511693
H      -5.203578   -2.327845   -0.189133
H      -3.024569    0.682910    0.850636
