21

C       0.565626    1.368864   -0.108222
O       0.776405   -0.010271   -0.304257
C      -0.252703   -0.622040   -1.050219
C       0.059752   -2.106563   -1.131215
O      -0.994545   -2.751636   -1.834512
C      -0.441538   -3.978460   -2.234508
O       0.899300   -3.734583   -2.590442
C       1.329099   -2.537672   -1.920357
C       1.853069   -1.552623   -2.956411
H       0.520328    1.915043   -1.063237
H      -0.368314    1.561744    0.442248
H       1.406654    1.747941    0.476986
H      -1.229970   -0.487799   -0.559851
H      -0.327529   -0.188879   -2.058966
H       0.126850   -2.504212   -0.106068
H      -0.492990   -4.712674   -1.408558
H      -0.994021   -4.352777   -3.102180
H       2.130316   -2.793779   -1.216776
H       1.067393   -1.277782   -3.666312
H       2.229950   -0.650145   -2.467811
H       2.668589   -2.014682   -3.519169
