16

C       0.744158    1.169376    0.211871
C      -0.325489    0.133366   -0.043042
O      -1.236858   -0.083809    0.714378
C      -0.188631   -0.688997   -1.365984
C      -1.551729   -1.241894   -1.797901
O       0.342207    0.215720   -2.336671
C       0.764363   -1.773774   -1.098347
C       1.556428   -2.655675   -0.894864
H       1.738368    0.736978    0.067157
H       0.647249    1.980612   -0.515501
H       0.636061    1.558209    1.224794
H      -2.218997   -0.408758   -2.031509
H      -1.437738   -1.870395   -2.685486
H      -1.993787   -1.832667   -0.994642
H       0.653929   -0.306333   -3.083738
H       2.251889   -3.437428   -0.710436
