18

C       0.219924    1.632266   -0.016248
C       0.037035    0.130149    0.052885
N       0.904233   -0.657512   -0.883023
C       1.268682   -1.625770    0.181512
C       2.643510   -1.311551    0.830959
N       2.010392   -0.219599    1.620374
C       0.649242   -0.654481    1.245704
C       0.872469   -3.000150   -0.014676
N       0.546267   -4.097768   -0.182945
H       1.262516    1.888585    0.183265
H      -0.053892    2.007767   -1.007450
H      -0.416125    2.133397    0.721936
H      -1.023894   -0.140178   -0.045944
H       0.420039   -1.070364   -1.672111
H       3.018465   -2.145846    1.435141
H       3.414522   -0.976440    0.131914
H       2.199837   -0.264847    2.613238
H      -0.012091   -0.966935    2.054611
