19

C       0.303483    1.415948    0.003852
O       0.463447    0.019660    0.074043
C       0.272790   -0.610263   -1.183102
C       0.475908   -2.087055   -1.056788
C       1.427607   -2.773876   -0.338533
C       2.541795   -2.335224    0.551238
N       1.163458   -4.104434   -0.602773
C       0.094725   -4.159170   -1.447651
N      -0.346276   -2.960133   -1.740334
H       1.025699    1.878704   -0.688284
H      -0.709734    1.693590   -0.327123
H       0.468915    1.816219    1.007197
H      -0.745044   -0.432917   -1.562079
H       0.969479   -0.171567   -1.920428
H       2.495503   -2.823690    1.532386
H       3.526739   -2.556853    0.120817
H       2.466629   -1.259616    0.711664
H       1.660741   -4.889405   -0.215723
H      -0.314030   -5.092890   -1.804206
