19

C       0.087062    1.422340   -0.028685
N      -0.032303   -0.016210    0.087905
C      -1.238173   -0.643644    0.034993
C      -2.476009   -0.084549    0.040090
C      -3.489073   -1.116806    0.021049
C      -2.808549   -2.479451   -0.004174
C      -1.294256   -2.155801    0.003161
N      -4.767747   -1.032505    0.018269
O      -5.179114    0.327265    0.046090
H       1.138578    1.705055    0.051042
H      -0.310327    1.800239   -0.981550
H      -0.460970    1.912842    0.783198
H       0.776941   -0.563656   -0.152499
H      -2.708690    0.968507    0.055256
H      -3.100922   -3.076861    0.863425
H      -3.101850   -3.045155   -0.892434
H      -0.779861   -2.546045   -0.884459
H      -0.778265   -2.580800    0.872481
H      -6.136882    0.239039    0.041647
