17

C      -0.258110    1.557250    0.091057
C       0.130431    0.074001   -0.023065
C       0.713863   -0.472110    1.242599
C       0.199997   -1.377569    2.143359
N       1.147723   -1.484238    3.106479
C       1.155752   -2.299017    4.303548
N       2.197953   -0.688887    2.823972
N       1.938116   -0.079137    1.703267
H       0.611324    2.157849    0.371233
H      -0.645880    1.932941   -0.860828
H      -1.028130    1.703894    0.855252
H      -0.744623   -0.522607   -0.303100
H       0.863691   -0.045056   -0.828992
H      -0.721924   -1.934181    2.175122
H       1.096095   -3.361308    4.050250
H       2.094682   -2.101253    4.820494
H       0.318145   -2.037113    4.956153
