18

O      -0.057880    0.011005    0.038480
C       0.031030    1.213210    0.089466
N      -0.968034    2.158627    0.213992
C      -0.281852    3.470260    0.049151
C      -1.077013    4.368201   -0.938369
C      -0.413282    3.484956   -2.088451
C       0.729139    3.203951   -1.048667
C       1.255800    2.132732   -0.005061
C       0.875060    3.262597    1.083141
H      -1.923143    1.985348   -0.054831
H      -2.167941    4.388193   -0.856939
H      -0.700130    5.392820   -0.963964
H      -1.027959    2.622605   -2.346553
H      -0.116848    4.002951   -3.002086
H       1.452355    4.021371   -1.113229
H       2.230850    1.651949   -0.043861
H       1.611156    4.067822    1.112416
H       0.614550    2.918505    2.086841
