20

C       0.526854    0.668976    0.666471
C      -0.333661    0.437993   -0.587068
C       0.438013   -0.168600   -1.711613
N       0.735306    0.381410   -2.824823
C       1.535812   -0.576758   -3.547042
C       2.849122   -0.975230   -2.893949
C       1.620991   -1.811071   -2.663100
C       1.489629   -3.257410   -3.033890
O       0.871078   -1.450418   -1.503132
H       0.953286   -0.271397    1.025458
H       1.349988    1.357484    0.452394
H      -0.076923    1.100808    1.469442
H      -1.167071   -0.230102   -0.339103
H      -0.751980    1.379297   -0.949744
H       1.436974   -0.589186   -4.626302
H       3.604973   -1.405449   -3.542344
H       3.227205   -0.354650   -2.088015
H       2.017813   -3.453065   -3.971102
H       1.920897   -3.904305   -2.262438
H       0.438687   -3.533184   -3.165254
