21

C       0.046812    1.479263    0.024404
C       0.002349   -0.039132    0.003228
C       0.607931   -0.702679   -1.266216
C       0.273887   -2.190461   -1.044969
O       1.174377   -2.744416   -0.054673
C       0.306609   -2.219622    0.979737
C       0.648323   -0.738672    1.232815
C      -0.894798   -2.142324   -0.012561
C      -1.399509   -0.702493    0.016335
H       1.078660    1.847616    0.013592
H      -0.465066    1.903321   -0.847071
H      -0.437408    1.877803    0.923298
H       0.116013   -0.312889   -2.166012
H       1.686439   -0.554199   -1.370707
H       0.220554   -2.806566   -1.945159
H       0.282099   -2.861415    1.863067
H       1.729714   -0.592758    1.306609
H       0.185936   -0.375174    2.158892
H      -1.602859   -2.968224   -0.013015
H      -1.973794   -0.463589    0.918066
H      -2.002543   -0.438001   -0.859103
