18

C      -0.339409    1.409244   -0.056628
C       0.078052   -0.052090   -0.112939
C       1.419726   -0.377398   -0.806413
O       1.976715   -0.886912    0.428721
C       0.762482   -0.662063    1.136604
C       0.838387   -0.008504    2.532223
O       0.150889   -1.163094    3.111756
C       0.123803   -1.819113    1.897083
N      -0.305375   -2.950810    1.576600
H       0.476397    2.046607    0.301606
H      -0.625563    1.763667   -1.052400
H      -1.200055    1.555013    0.604467
H      -0.745733   -0.678765   -0.461267
H       1.382944   -1.149330   -1.581949
H       1.985003    0.486351   -1.176763
H       1.856159    0.084040    2.918573
H       0.270497    0.910518    2.693764
H      -0.679016   -3.457889    2.380862
