20

C      -0.040293    1.453906   -0.038597
N       0.041115    0.005547    0.036505
C       0.837567   -0.421299    1.174081
C      -1.293069   -0.598359    0.017969
C      -1.281616   -2.086996   -0.182208
N      -1.205035   -2.601451   -1.410304
N      -1.224418   -3.932640   -1.222549
C      -1.318767   -4.288699    0.081146
C      -1.361671   -3.110290    0.793894
H       0.967936    1.877333   -0.089003
H      -0.579790    1.750774   -0.943673
H      -0.554919    1.911601    0.830243
H       0.403877   -0.114585    2.147814
H       0.937201   -1.509486    1.176349
H       1.839953    0.012576    1.102715
H      -1.855245   -0.367168    0.945445
H      -1.843820   -0.146735   -0.812762
H      -1.185381   -4.537059   -2.025529
H      -1.351153   -5.322232    0.387627
H      -1.441635   -2.997555    1.863125
