16

C       0.099684    1.355245   -0.226567
O       0.013017   -0.002816    0.194331
C      -1.243703   -0.511229    0.129348
C      -1.709411   -1.944602    0.040536
C      -2.618711   -1.795612    1.257794
C      -2.625950   -0.282779    0.920249
O      -3.338489   -0.209764   -0.341674
C      -2.221446   -0.846934   -0.949704
H       1.150335    1.641744   -0.152351
H      -0.241713    1.468852   -1.263013
H      -0.500744    2.010159    0.418033
H      -1.154931   -2.805756   -0.309164
H      -3.595991   -2.287488    1.257033
H      -2.079922   -2.002281    2.185794
H      -2.916125    0.488641    1.630242
H      -2.166627   -0.922821   -2.027161
