12

O      -0.003495   -0.036164    0.004311
C      -0.032242    1.180987    0.007899
C       1.179211    1.977886    0.001271
C       2.206651    2.603687   -0.004457
C      -1.308068    1.919241    0.019034
C      -2.557811    1.376193    0.026626
O      -3.455197    2.389330    0.035750
C      -2.693512    3.519284    0.033294
N      -1.423717    3.307956    0.023487
H       3.112740    3.159151   -0.009403
H      -2.938214    0.370046    0.026724
H      -3.224845    4.457668    0.039595
