21

C       0.168269    1.517144   -0.549114
C       0.022818    0.048498   -0.212158
C      -1.368221   -0.556696   -0.312114
C      -2.370045    0.041359    0.672947
C      -3.098242    1.361553    0.321102
O      -4.390883    0.749957    0.493130
C      -3.797783   -0.550302    0.681998
C       1.193900   -0.834409   -0.324891
O       0.754349   -0.368751    0.953947
H       1.210345    1.830627   -0.451437
H      -0.162232    1.717699   -1.573884
H      -0.431483    2.136147    0.125796
H      -1.744517   -0.448217   -1.338465
H      -1.285776   -1.632014   -0.115649
H      -1.926153    0.063646    1.671408
H      -2.949562    2.207022    1.003572
H      -2.946824    1.709740   -0.710813
H      -4.016038   -1.225612   -0.158144
H      -4.130059   -1.024853    1.612701
H       1.055461   -1.899565   -0.508243
H       2.145440   -0.428819   -0.667449
