16

O      -0.041802    1.408332   -0.156191
C       0.010082    0.011350    0.085262
C      -1.364638   -0.598426    0.176519
C      -2.378841   -0.081149    1.235310
N      -3.634325   -0.846631    0.917428
C      -3.172256   -1.751494    0.164792
O      -3.361966   -1.727517   -1.229452
C      -1.912199   -1.375086   -1.169426
C      -1.638153   -2.060811    0.085619
H      -0.525608    1.545313   -0.977928
H       0.615381   -0.513628   -0.671406
H       0.530120   -0.101695    1.044106
H      -1.983699   -0.211713    2.254465
H      -2.639308    0.972219    1.103291
H      -1.406354   -1.351322   -2.127961
H      -1.085514   -2.951279    0.355386
