21

C       0.737954   -0.404765   -1.205373
C      -0.116148   -0.040572    0.017251
C      -0.036318    1.464676    0.307388
C      -1.583742   -0.518132   -0.140110
C      -1.762016   -2.071413   -0.053135
C      -2.290036   -1.836678    1.381414
N      -2.436432   -0.396388    1.070857
C      -2.200712    0.112569   -1.319905
N      -2.670170    0.598980   -2.257817
H       1.781313   -0.121600   -1.037116
H       0.714882   -1.477757   -1.418564
H       0.387046    0.122527   -2.098163
H       0.273280   -0.585115    0.888502
H      -0.422932    2.045640   -0.536198
H      -0.604761    1.749938    1.198647
H       1.002604    1.763776    0.475057
H      -2.516564   -2.453245   -0.740403
H      -0.846431   -2.653118   -0.157181
H      -3.231268   -2.327070    1.646638
H      -1.546450   -2.068632    2.154618
H      -2.099399    0.256131    1.769751
