20

N       0.374020    1.154202   -0.476232
C       0.183335   -0.040050   -0.110717
O       1.164013   -0.882535    0.333983
C       0.594747   -2.153786    0.697099
C      -0.743333   -2.218078   -0.045297
C      -1.154840   -0.740608   -0.083312
C      -2.134585   -0.290934    1.058617
C      -3.293142   -0.297960    0.027505
C      -2.236022   -0.313749   -1.108274
H       1.357714    1.411115   -0.381637
H       1.304312   -2.932660    0.409210
H       0.462386   -2.184740    1.786073
H      -0.589960   -2.592144   -1.063921
H      -1.470061   -2.866801    0.449631
H      -2.215186   -0.954468    1.924282
H      -1.894656    0.717489    1.402353
H      -3.876326   -1.222218    0.066085
H      -3.984348    0.546694    0.054586
H      -2.015617    0.685989   -1.488677
H      -2.403103   -0.991796   -1.949647
