20

C       0.004782    1.549972    0.041754
C       0.020751    0.046266   -0.041863
C       0.045074   -0.570444   -1.236414
C       0.011372   -1.992498   -1.566044
C       0.086017   -3.083038   -0.787724
C       0.287971   -3.174299    0.697396
C       0.858785   -1.934248    1.390831
C      -0.007653   -0.667932    1.290658
H       0.890212    1.926947    0.571572
H      -0.025750    2.016254   -0.946341
H      -0.865001    1.903321    0.612366
H       0.052962    0.077208   -2.111478
H      -0.113359   -2.180358   -2.631189
H      -0.003771   -4.045609   -1.288378
H      -0.664812   -3.456251    1.172271
H       0.958192   -4.021905    0.898149
H       0.999685   -2.174967    2.451008
H       1.854091   -1.717004    0.986147
H       0.318178    0.038094    2.064153
H      -1.048794   -0.915326    1.546939
