17

O      -0.061702    1.342185    0.325834
N       0.056702   -0.061599    0.378591
C      -1.019100   -0.618529    0.009043
C      -2.402320   -0.151915   -0.409937
C      -2.819199   -1.648191   -0.529652
C      -2.572772   -2.283443   -1.923456
C      -1.139289   -2.715645   -1.489372
C      -1.365257   -2.085746   -0.079320
H       0.801000    1.628981    0.643586
H      -2.913047    0.398535    0.387227
H      -2.456774    0.449514   -1.322931
H      -3.719119   -1.944882    0.008009
H      -3.229853   -3.128811   -2.141029
H      -2.630365   -1.586687   -2.764623
H      -1.011802   -3.799719   -1.446569
H      -0.306358   -2.295212   -2.057039
H      -1.141015   -2.706752    0.788625
