20

C      -0.137383    1.274785    0.109767
O      -0.037337   -0.123624   -0.110586
C       0.768835   -0.552711   -1.217168
C       2.201062   -0.041559   -1.146066
C       0.613032   -2.079303   -1.230266
C      -0.735612   -2.257157   -1.931195
O      -0.816693   -1.163075   -2.868107
C       0.046962   -0.173507   -2.513995
N       0.205917    0.910089   -3.146486
H       0.804592    1.699404    0.480913
H      -0.433520    1.815058   -0.796260
H      -0.903889    1.404750    0.877805
H       2.632963   -0.270295   -0.167109
H       2.811664   -0.515860   -1.919024
H       2.238272    1.036087   -1.317016
H       1.414839   -2.533649   -1.819462
H       0.630818   -2.491332   -0.220315
H      -0.825910   -3.185550   -2.499042
H      -1.570914   -2.179321   -1.228443
H      -0.418682    0.949591   -3.954958
