20

C       0.043911    1.527858   -0.123136
C      -0.022675    0.011814   -0.068213
O       0.656898   -0.504305   -1.203824
C       0.738469   -1.919001   -1.288601
C      -0.505603   -2.527902   -1.934092
C       1.999409   -2.170605   -2.145571
O       1.937313   -1.461554   -3.361205
C       3.212905   -1.814026   -1.373657
N       4.156507   -1.539861   -0.766089
H       1.083939    1.865234   -0.122070
H      -0.440993    1.902791   -1.029004
H      -0.463220    1.959453    0.744607
H       0.454672   -0.365640    0.849026
H      -1.069458   -0.327248   -0.060480
H       0.900883   -2.348256   -0.288909
H      -1.404948   -2.251154   -1.378009
H      -0.603609   -2.173997   -2.963077
H      -0.440354   -3.620601   -1.942888
H       2.063807   -3.233463   -2.401121
H       1.691307   -0.556475   -3.123999
