15

O       0.813400    1.125540    1.299625
C       0.526638    1.737525    0.305603
C       1.157817    1.490678   -1.062705
N       1.268089    2.719953   -1.816306
C       2.296904    3.585631   -1.489881
C       3.082308    3.651465   -0.377652
O       3.919734    4.737011   -0.538593
C       3.591757    5.239758   -1.736953
N       2.642506    4.612982   -2.355996
H      -0.245871    2.538913    0.298502
H       2.115205    0.967186   -0.917307
H       0.481990    0.813644   -1.599374
H       1.123836    2.650133   -2.812286
H       3.175977    3.094210    0.535947
H       4.140684    6.105363   -2.073309
