20

C      -0.297921    1.377155    0.037673
C      -0.065227   -0.054106    0.393391
C      -1.021555   -1.013524    0.455756
C      -1.666941   -1.291237   -0.918274
C      -0.508659   -2.367653   -1.037239
C      -0.518475   -3.479423   -2.047147
C      -0.343269   -2.401508    0.432234
N       0.845959   -2.115844   -0.348284
C       1.256941   -0.755756    0.089805
H       0.222358    1.657502   -0.888217
H      -1.364832    1.592318   -0.070834
H       0.090010    2.043344    0.820002
H      -2.621939   -1.830728   -0.922311
H      -1.715348   -0.456412   -1.624449
H      -0.256019   -3.108859   -3.044623
H       0.201234   -4.254222   -1.773727
H      -1.515425   -3.930173   -2.110681
H      -0.408735   -3.212555    1.149986
H       1.775701   -0.206681   -0.705861
H       1.970819   -0.884941    0.914720
