20

C       2.124574    2.977049   -1.934516
C       1.075464    1.885839   -1.840576
O       1.601246    0.721322   -2.502487
C       0.794316   -0.347457   -2.563008
N      -0.368262   -0.344412   -2.046759
C       1.408535   -1.510325   -3.284195
O       2.505259   -1.292183   -4.165739
C       2.749025   -2.073993   -2.997861
C       3.711442   -1.538133   -1.971365
H       3.050633    2.678199   -1.434782
H       2.356215    3.206187   -2.978329
H       1.754136    3.887621   -1.454163
H       0.835562    1.629359   -0.803442
H       0.137418    2.172494   -2.326410
H      -0.835024   -1.235229   -2.207942
H       0.652174   -2.198472   -3.664871
H       2.853691   -3.141287   -3.208417
H       3.545074   -0.476215   -1.793945
H       3.597923   -2.084393   -1.028743
H       4.740338   -1.681372   -2.317816
