18

C       0.459989    1.378935    0.338124
C      -0.072005    0.028840   -0.108535
O       0.793954   -0.486679   -1.104568
C       0.391041   -1.740335   -1.589999
C       1.373720   -2.176572   -2.625096
C       2.499216   -1.609173   -3.132362
C       2.941183   -2.568392   -4.082850
N       2.156862   -3.615136   -4.143291
O       1.149019   -3.365245   -3.207269
H       1.468438    1.277202    0.748575
H       0.499961    2.073695   -0.505378
H      -0.187967    1.805314    1.109400
H      -0.125192   -0.670467    0.742377
H      -1.093651    0.126102   -0.511886
H       0.345503   -2.490668   -0.781283
H      -0.619612   -1.696051   -2.032389
H       2.934025   -0.662248   -2.865834
H       3.808389   -2.530322   -4.727370
