21

C       0.146440    1.528752   -0.044219
C       0.014618   -0.004103   -0.025741
C      -1.483920   -0.378074    0.081023
C       0.634504   -0.607045   -1.303887
C       0.930551   -2.095374   -1.137691
C       1.880582   -2.270495    0.033221
O       1.402054   -1.668536    1.247054
C       0.671160   -0.526984    1.268338
O       0.490996    0.009762    2.329589
H       1.195790    1.836152   -0.099544
H      -0.372160    1.936873   -0.918228
H      -0.285168    1.962667    0.859072
H      -2.030374    0.044108   -0.768863
H      -1.641869   -1.460707    0.080743
H      -1.908520    0.023389    1.003935
H      -0.036544   -0.424788   -2.150658
H       1.572913   -0.084941   -1.533335
H       0.010503   -2.663472   -0.960902
H       1.396209   -2.510163   -2.038196
H       2.039894   -3.322834    0.282018
H       2.858727   -1.828811   -0.200646
