22

C      -0.060593    1.577693    0.039234
C       0.044162    0.046865   -0.027474
C      -1.352684   -0.595183    0.115790
C       0.738963   -0.405880   -1.283600
C       0.801016    0.173400   -2.535495
C       1.547601   -0.687845   -3.383697
C       1.923797   -1.769575   -2.626813
N       1.430750   -1.601712   -1.353108
C       1.673364   -2.517172   -0.258091
H       0.923426    2.047622   -0.040480
H      -0.685074    1.964354   -0.773002
H      -0.518634    1.889651    0.983264
H       0.645283   -0.276762    0.833888
H      -2.001117   -0.278880   -0.707775
H      -1.301919   -1.688032    0.092773
H      -1.825364   -0.298587    1.058751
H       0.356335    1.117127   -2.811998
H       1.782811   -0.530210   -4.425047
H       2.504058   -2.644724   -2.874294
H       2.245525   -2.040774    0.545755
H       0.738749   -2.899931    0.164252
H       2.251491   -3.364077   -0.631496
