18

C      -0.034374    1.530675   -0.029801
C      -0.008596    0.026588    0.003133
C      -0.029047   -0.687496   -1.136828
O      -0.008545   -2.036757   -1.200810
C       0.037129   -2.812322   -0.040236
N       0.055936   -4.081519   -0.115452
C       0.060060   -2.073154    1.203048
C       0.039138   -0.721482    1.253420
C       0.064040    0.014274    2.564491
H       0.853079    1.964122    0.445960
H      -0.069692    1.896588   -1.059487
H      -0.907187    1.935049    0.496007
H      -0.064335   -0.249132   -2.127756
H       0.033351   -4.383248   -1.089756
H       0.095449   -2.678802    2.100383
H       0.099495   -0.681809    3.405038
H       0.934471    0.677339    2.631552
H      -0.822840    0.647984    2.681381
