20

C      -0.010255    1.547273    0.030638
C      -0.080829    0.016951   -0.007098
C       0.688574   -0.573501   -1.183936
C       2.241835   -0.526289   -1.201433
C       2.246805   -1.942188   -1.831603
C       0.761216   -2.136116   -1.386594
C       0.639761   -2.921519   -0.110041
O      -0.220676   -3.733950    0.119697
H       1.025179    1.895683    0.110697
H      -0.437299    1.985078   -0.878525
H      -0.562676    1.948798    0.885361
H       0.309726   -0.387469    0.935527
H      -1.128718   -0.304443   -0.064655
H       0.302562   -0.142735   -2.115354
H       2.719518    0.279224   -1.763587
H       2.655485   -0.528965   -0.187459
H       2.328553   -1.916899   -2.920454
H       2.974251   -2.662576   -1.447768
H       0.063635   -2.556970   -2.113383
H       1.432046   -2.708616    0.647271
