19

C      -0.027732    1.576164    0.143808
C       0.000840    0.046252    0.052610
C       0.777297   -0.562732    1.229199
O      -1.326859   -0.477528    0.023079
C       0.639343   -0.432608   -1.276526
C       0.016553    0.104039   -2.475381
C      -0.480733    0.548132   -3.485505
C      -1.044869    1.048467   -4.618292
C      -1.542945    1.493390   -5.624643
H       0.982792    1.996750    0.118010
H      -0.601739    1.996816   -0.684825
H      -0.491981    1.890557    1.085887
H       0.311984   -0.275286    2.178464
H       0.770952   -1.654654    1.166030
H       1.816075   -0.217305    1.250438
H      -1.799737   -0.129008    0.786060
H       1.705181   -0.172594   -1.270025
H       0.579174   -1.527769   -1.297123
H      -1.983429    1.882339   -6.508608
