20

C       0.062953    1.340398   -0.025078
O       0.021639   -0.075180   -0.026308
C      -1.254351   -0.593360    0.015867
C      -2.176371   -0.529326    1.252314
N      -2.787563   -1.828359    0.813572
C      -1.572924   -2.132476   -0.001097
C      -2.829481   -1.770273   -0.700919
C      -3.845684   -2.625702   -1.388029
C      -2.269993   -0.421136   -1.157158
H       1.115372    1.629277   -0.053666
H      -0.447350    1.761651   -0.902809
H      -0.396617    1.759984    0.881319
H      -1.642136   -0.698018    2.191163
H      -2.876440    0.308005    1.356482
H      -0.980107   -3.033623    0.085644
H      -3.976018   -3.567619   -0.848404
H      -4.818520   -2.122672   -1.427095
H      -3.539425   -2.850615   -2.415229
H      -2.930191    0.453756   -1.152302
H      -1.772366   -0.516881   -2.126092
