19

C      -0.429484    1.302924   -0.010386
C       0.031393   -0.146530   -0.117579
C       1.084312   -0.317386   -1.220292
N       1.199488   -1.697180   -1.643462
C       1.202873   -2.758857   -0.791891
C       0.975690   -2.818325    0.541639
C       0.746610   -1.775923    1.541586
N       0.736853   -1.961229    2.805274
O       0.567182   -0.474566    1.160147
H       0.425425    1.964642    0.161599
H      -0.938728    1.617374   -0.925997
H      -1.116125    1.411544    0.831558
H      -0.825492   -0.795772   -0.340942
H       0.800486    0.275641   -2.095299
H       2.035964    0.081275   -0.836093
H       1.549649   -1.862562   -2.571048
H       1.389465   -3.699835   -1.302936
H       1.010284   -3.816164    0.964234
H       0.944419   -2.937159    3.010048
