18

O       0.083045    1.305515   -0.380218
C      -0.062854   -0.000621    0.138669
C      -1.519388   -0.436291    0.143985
O      -1.955683   -0.412318   -1.208182
C      -3.323841   -0.665250   -1.373406
C      -4.310769    0.506629   -1.142506
O      -4.782009    0.415023   -2.502880
C      -3.785560   -0.573466   -2.835241
H      -0.384014    1.307231   -1.223876
H       0.526666   -0.733182   -0.435361
H       0.321800    0.012462    1.163583
H      -1.628791   -1.447161    0.568845
H      -2.114183    0.262180    0.751789
H      -3.609501   -1.593761   -0.861007
H      -5.117824    0.351327   -0.417659
H      -3.808563    1.461661   -0.937609
H      -3.006090   -0.178845   -3.499312
H      -4.225815   -1.473473   -3.277866
