25

C       0.035658    1.472446   -0.184072
C       0.016057   -0.041818    0.085150
C       0.790382   -0.383955    1.367596
C      -1.402413   -0.569431    0.101876
C      -2.425991   -0.322834    1.229504
C      -2.931419   -1.793291    1.078546
C      -1.924865   -2.009684   -0.056230
C      -2.112850   -0.996600   -1.159832
C      -3.446352   -0.480801   -1.661201
H       1.061771    1.852366   -0.231107
H      -0.459869    1.713524   -1.129691
H      -0.482667    2.017850    0.613198
H       0.529780   -0.537566   -0.750917
H       0.368151    0.127299    2.239722
H       0.771273   -1.460146    1.566937
H       1.837124   -0.073311    1.283597
H      -1.956969   -0.151249    2.200575
H      -3.155233    0.475923    1.059821
H      -2.704920   -2.394697    1.961798
H      -3.988661   -1.935384    0.830876
H      -1.361751   -2.922483   -0.220568
H      -1.399754   -1.161562   -1.967231
H      -4.171781   -0.338970   -0.856410
H      -3.327644    0.482854   -2.169306
H      -3.887639   -1.181215   -2.379242
