17

O      -0.274468    0.082695    0.169909
C      -0.083769    1.262882    0.031339
C       1.273705    1.921866   -0.041560
C       1.422764    2.791414   -1.312084
C       2.688075    3.575629   -1.335804
C       3.777741    3.578085   -2.150553
C       4.672529    4.574165   -1.635759
C       4.059441    5.099531   -0.545867
O       2.850593    4.504441   -0.347325
H      -0.940408    1.973676   -0.057584
H       1.375643    2.573852    0.836450
H       2.049026    1.153363    0.010274
H       1.397269    2.156640   -2.202965
H       0.562741    3.471503   -1.382071
H       3.926607    2.949014   -3.014365
H       5.636964    4.855178   -2.028490
H       4.326036    5.863463    0.165478
