21

C       0.063259    1.498038   -0.009730
C      -0.001746   -0.026450   -0.070711
O       0.785490   -0.624975    0.960307
C      -1.444832   -0.548789   -0.035445
C      -1.537601   -2.072849   -0.099057
C      -2.958823   -2.600610    0.054478
O      -1.031285   -2.488168   -1.388667
C      -0.092078   -3.450198   -1.429867
O       0.350428   -3.877817   -2.454220
H       1.103224    1.834447   -0.027993
H      -0.463266    1.950944   -0.855676
H      -0.403134    1.872667    0.910855
H       0.466174   -0.367138   -1.000542
H       0.507705   -0.243089    1.800768
H      -1.929299   -0.211161    0.891277
H      -2.014524   -0.118687   -0.867857
H      -0.887796   -2.492267    0.678288
H      -3.603804   -2.206721   -0.736763
H      -2.974904   -3.692672   -0.003854
H      -3.374995   -2.302388    1.021731
H       0.220951   -3.789600   -0.423567
