18

C       0.029803    1.583224   -0.020246
C      -0.026021    0.081868   -0.000447
C       0.453461   -0.782562   -1.202106
C      -0.509800   -1.848314   -0.691213
N      -0.515711   -1.858901    0.808527
C       0.443667   -0.771486    1.191139
C      -1.330150   -0.845788    0.048342
C      -2.711465   -0.592461    0.178824
C      -3.882113   -0.328164    0.278526
H       1.069286    1.931474   -0.044064
H      -0.478260    1.989874   -0.900865
H      -0.446654    2.009388    0.868872
H       0.110437   -0.377479   -2.157791
H       1.522160   -1.017212   -1.257713
H      -0.846640   -2.756532   -1.173236
H       1.497138   -1.074281    1.225772
H       0.137762   -0.369769    2.160631
H      -4.916353   -0.106950    0.370683
