15

O       0.018854    1.388926    0.060164
C      -0.028320   -0.000584    0.022373
C      -1.356321   -0.737576    0.022386
C      -2.605074    0.057882   -0.315888
C      -2.419826    0.532856   -1.768160
O      -3.174191    1.206506   -2.428420
N      -1.181403    0.077043   -2.179065
C      -0.480042   -0.728502   -1.223134
H      -0.130465    1.714722   -0.836262
H       0.774228   -0.457881    0.594845
H      -1.446543   -1.636513    0.619642
H      -3.516171   -0.542094   -0.247633
H      -2.737561    0.938858    0.319316
H      -0.845308    0.266035   -3.109719
H       0.034991   -1.604127   -1.601590
