13

O       0.073910    1.334228   -0.021160
C       0.050099   -0.012198    0.001627
C       0.033827   -0.727791   -1.196731
N       0.010195   -2.056201   -1.224515
C       0.002693   -2.679433   -0.040414
N       0.016368   -2.110427    1.159179
C       0.040208   -0.769468    1.186304
C       0.056247   -0.077405    2.435660
C       0.071164    0.594443    3.436040
H       0.082358    1.656803    0.892278
H       0.040477   -0.193156   -2.143330
H      -0.016615   -3.765133   -0.062515
H       0.083659    1.148231    4.343140
