18

C       0.016477    0.973796    0.438314
O      -0.136221   -0.148484   -0.420679
C      -1.401972   -0.734585   -0.307886
C      -1.513054   -2.146367   -0.823094
C      -1.506037   -1.882466    0.667704
O      -0.348227   -2.201024    1.394466
C      -2.725842   -2.121379    1.516226
O      -2.868566   -3.485272    1.872119
H       1.027375    1.357829    0.284808
H      -0.706969    1.762920    0.189254
H      -0.113514    0.695583    1.492336
H      -2.235218   -0.043815   -0.442695
H      -2.437641   -2.447306   -1.303226
H      -0.612857   -2.575877   -1.250278
H       0.390557   -1.774579    0.940428
H      -2.664885   -1.481120    2.411143
H      -3.628915   -1.842898    0.963676
H      -2.022138   -3.757026    2.244664
