17

C       0.290058    1.593315   -0.152989
C      -0.006498    0.095031    0.039366
C       0.567298   -0.482569    1.278179
C       0.083224   -1.034958    2.414449
O      -1.209873   -1.229238    2.750379
N       1.104611   -1.423065    3.268373
C       2.177733   -1.080885    2.617116
N       3.477991   -1.175139    3.043894
O       1.968446   -0.515065    1.420508
H       1.368423    1.774373   -0.188919
H      -0.146418    1.959435   -1.087651
H      -0.121452    2.180907    0.673096
H      -1.088267   -0.069875    0.085066
H       0.352889   -0.458289   -0.839949
H      -1.205551   -1.642295    3.621614
H       3.604078   -1.843860    3.788823
H       4.159539   -1.258627    2.304000
