19

C      -0.177645    1.492072    0.051677
C       0.035711   -0.037823   -0.018337
C       0.763640   -0.453175   -1.272063
C       1.940598   -1.077775   -1.291805
C       2.724988   -1.436947   -0.055830
O       4.127471   -1.329847   -0.268674
C       2.265545   -0.596868    1.153107
C       0.750741   -0.519615    1.246161
O       0.140548   -0.799082    2.250782
H       0.777630    2.025409    0.087559
H      -0.720894    1.841017   -0.831921
H      -0.758010    1.754313    0.940319
H      -0.957550   -0.504664   -0.002874
H       0.254626   -0.234936   -2.209034
H       2.395847   -1.376181   -2.232913
H       2.575360   -2.500161    0.174211
H       4.309202   -0.428977   -0.560112
H       2.673569   -0.981303    2.089188
H       2.641678    0.425782    1.005294
