24

C       0.147136    1.233897   -0.795664
C      -0.057092   -0.246542   -0.481683
O       1.014704   -0.753206    0.312783
C      -1.442719   -0.598344    0.149079
C      -1.488896   -2.118933    0.389132
C      -1.656039    0.131265    1.484210
N      -2.456981   -0.064805   -0.785378
C      -2.953474   -0.837443   -1.915142
C      -3.835194   -0.524851   -0.753789
H       1.095696    1.370584   -1.322599
H      -0.669093    1.616609   -1.410014
H       0.183044    1.833493    0.122137
H       0.006062   -0.812478   -1.420136
H       1.185595   -0.114788    1.012771
H      -0.683391   -2.398111    1.070323
H      -2.436597   -2.434338    0.835488
H      -1.334578   -2.684612   -0.534730
H      -1.705772    1.212952    1.339608
H      -2.596363   -0.186501    1.945389
H      -0.851030   -0.100074    2.188619
H      -3.051418   -0.290242   -2.849375
H      -2.648317   -1.874526   -2.032101
H      -4.102698   -1.357093   -0.106161
H      -4.592027    0.252615   -0.822270
