17

N       0.001284    1.494517   -0.125033
C       0.009068    0.029222   -0.053987
C       0.762583   -0.537269    1.132316
C       0.136046   -1.003694    2.210672
C      -1.362733   -1.004176    2.317267
O      -1.986532   -0.224307    1.307127
C      -1.438866   -0.496487    0.024673
C      -2.321440    0.104350   -0.983632
N      -3.020394    0.518148   -1.803673
H      -0.355023    1.861989    0.753207
H       0.950008    1.842945   -0.222789
H       0.451291   -0.340182   -0.986941
H       1.848180   -0.520653    1.081546
H       0.684905   -1.407328    3.057352
H      -1.747904   -2.039885    2.291109
H      -1.686515   -0.568627    3.268776
H      -1.425892   -1.583959   -0.155390
