19

C      -0.104757    1.577200   -0.077105
C       0.077282    0.064136   -0.001848
C       1.013162   -0.576502   -1.061043
C       2.445892   -0.307070   -0.543348
C       1.915182   -1.308348    0.507629
O       1.135603   -1.944660   -0.556242
C       0.838404   -0.496851    1.222227
C       0.956448    0.086999    2.557973
O       0.136633   -1.066198    2.315958
H       0.847322    2.111214    0.003874
H      -0.570957    1.866054   -1.025370
H      -0.755779    1.934633    0.727030
H      -0.895990   -0.433317   -0.058293
H       0.729440   -0.511152   -2.111551
H       3.202124   -0.757930   -1.186098
H       2.732777    0.699959   -0.230344
H       2.534684   -1.986386    1.093333
H       1.850016   -0.092323    3.156210
H       0.417382    1.000925    2.803206
