17

O      -0.018697   -0.040250    0.106099
C      -0.077720    1.174641    0.065996
C       1.155283    1.990496    0.119928
N       2.142947    2.588937    0.164982
N      -1.213615    1.896326   -0.027116
C      -1.328629    3.361854   -0.087850
C      -2.773334    3.570254   -0.564384
C      -3.521583    2.372855    0.046262
C      -2.516923    1.219248   -0.083534
H      -1.170897    3.801572    0.905080
H      -0.584406    3.786562   -0.765144
H      -3.173624    4.537103   -0.253141
H      -2.814042    3.524724   -1.657771
H      -3.739287    2.563674    1.102457
H      -4.466984    2.155045   -0.454331
H      -2.617191    0.688668   -1.038142
H      -2.589909    0.473617    0.711834
