20

C       0.366937    1.596039    0.048381
C       0.101644    0.097332    0.050180
C       0.890644   -0.791718   -0.969968
C       1.400112   -1.682681    0.200605
N       2.826578   -1.537025    0.498690
C       2.913132   -0.684005    1.438278
C       4.165491   -0.187216    2.074664
O       1.761273   -0.145884    1.950179
C       0.677411   -0.751019    1.219438
H       1.432174    1.810991    0.172254
H       0.040365    2.040341   -0.897822
H      -0.169233    2.098399    0.860332
H      -0.975703   -0.083962   -0.027992
H       0.273929   -1.300480   -1.714572
H       1.706031   -0.275203   -1.482586
H       1.114373   -2.735750    0.157291
H       5.026483   -0.679882    1.624484
H       4.253344    0.896361    1.945929
H       4.146624   -0.385001    3.150959
H      -0.036165   -1.149135    1.943799
