12

O       0.064950    1.356715   -0.145579
C      -0.089026   -0.039847   -0.211105
C      -1.553874   -0.474943    0.043505
C      -1.772136   -1.979671   -0.180822
O      -0.985367   -2.666333   -0.771177
C      -2.003222   -0.080603    1.377270
N      -2.320485    0.228641    2.445068
H      -0.024872    1.633099    0.773199
H       0.181292   -0.349441   -1.222000
H       0.570000   -0.571656    0.487616
H      -2.195155    0.044360   -0.684943
H      -2.722694   -2.381984    0.226002
