18

O       0.000044   -0.037445    0.004121
C      -0.002453    1.172205   -0.038293
N      -1.112516    1.983494    0.003939
C      -0.808763    3.384040   -0.026541
C       0.100583    3.983240    1.042256
C       0.633563    3.077164    2.155693
C       1.692682    2.179131    1.463831
C       1.224166    2.110020   -0.013764
C       0.663715    3.513252   -0.287166
H      -2.014532    1.607058    0.247727
H      -1.533618    4.018473   -0.523804
H      -0.019961    5.043901    1.233877
H       1.068107    3.669002    2.965030
H      -0.166144    2.471481    2.596325
H       2.674418    2.662868    1.501541
H       1.784721    1.187464    1.915002
H       1.998186    1.763429   -0.698162
H       1.077271    4.166437   -1.044193
