21

C      -0.002154    1.541108    0.297934
C      -0.059836    0.045388   -0.019139
O       0.800561   -0.695886    0.841021
C      -1.480135   -0.496521   -0.002929
C      -2.120152   -1.022470    1.258779
C      -1.794415   -1.967299    0.126289
C      -2.916611   -2.241693   -0.853939
O      -3.493924   -0.967898   -1.137372
C      -2.468813    0.015200   -1.043301
H       1.033991    1.890498    0.285898
H      -0.572314    2.125900   -0.430914
H      -0.428295    1.741151    1.288837
H       0.351735   -0.117878   -1.024473
H       0.647315   -0.391490    1.741825
H      -1.499605   -1.101432    2.144722
H      -3.161219   -0.781062    1.450561
H      -0.998215   -2.689652    0.255014
H      -2.517674   -2.711306   -1.768095
H      -3.718376   -2.877340   -0.462998
H      -2.954892    0.961518   -0.782584
H      -1.952140    0.148803   -2.010344
