18

C      -0.170283    1.519038   -0.043786
C       0.000191    0.038118   -0.000926
C       0.034113   -1.033021   -1.053476
C       1.302768   -1.652195   -0.478620
C       0.916355   -0.947382    0.851505
C      -0.361976   -1.691179    1.314642
C      -1.033502   -1.088784    0.078880
C      -2.422297   -1.004754   -0.215347
N      -3.555281   -0.927981   -0.444863
H       0.748589    2.014483   -0.376707
H      -0.970766    1.792270   -0.738999
H      -0.431178    1.921896    0.940878
H      -0.290097   -0.963526   -2.084122
H       1.404689   -2.742375   -0.461334
H       2.190671   -1.204287   -0.932666
H       1.674859   -0.648451    1.570958
H      -0.311140   -2.781581    1.400381
H      -0.780628   -1.265022    2.229213
