16

C      -0.082243    1.357647    0.079944
N       0.026691   -0.072913   -0.085855
C       0.667171   -0.623779   -1.151220
N       1.202430    0.118504   -2.056177
C       0.663639   -2.105265   -1.127369
C       1.194458   -2.994904   -2.005589
O       0.932549   -4.253966   -1.551672
C       0.245624   -4.062383   -0.403538
N       0.053607   -2.824242   -0.096965
H       0.907110    1.825591    0.138965
H      -0.607132    1.815095   -0.766505
H      -0.633305    1.566800    0.999067
H      -0.371572   -0.702231    0.589408
H       1.638676   -0.447863   -2.779675
H       1.744310   -2.923165   -2.927376
H      -0.066972   -4.945610    0.130722
