17

C      -0.081025    1.463720   -0.025617
N      -0.113349    0.030190    0.152753
C       0.520652   -0.571672    1.194738
N       1.111829    0.100537    2.115007
C       0.428940   -2.085594    1.101380
O      -0.089185   -2.618355    0.142063
C       0.997499   -3.006911    2.215753
C       0.786759   -4.482205    1.975902
O       1.561563   -2.569651    3.191616
H       0.938123    1.830823   -0.202328
H      -0.710897    1.730296   -0.876574
H      -0.455931    1.966166    0.871441
H      -0.447751   -0.571810   -0.580214
H       1.494085   -0.528224    2.816153
H      -0.281377   -4.701892    1.883262
H       1.242530   -4.780621    1.027038
H       1.220960   -5.044055    2.802643
