15

O       0.056080    1.360257   -0.045892
C       0.031616   -0.048295   -0.033931
C       0.515965   -0.681156    1.317569
C      -0.836412   -1.280343    1.743758
C      -1.295179   -2.047082    0.482720
C      -1.415846   -0.587030    0.010215
O      -1.780218   -0.209874    1.382985
H      -0.546492    1.632015    0.659645
H       0.599804   -0.381483   -0.905438
H       1.298448   -1.435140    1.198260
H       0.872035    0.093896    1.999588
H      -0.964860   -1.654767    2.758772
H      -0.588784   -2.714449   -0.017937
H      -2.270583   -2.517028    0.611552
H      -2.114434   -0.238382   -0.749918
