20

C      -0.022244    1.772540    0.858336
N      -0.120597    0.378270    0.451033
C       0.992145   -0.200274   -0.293034
C       0.700576   -0.637048    1.102137
C       1.676581   -0.326242    2.233512
C       1.009105   -0.176429    3.524170
C       0.439139   -0.055255    4.578901
C      -0.307982    0.090743    5.827707
O      -1.522099    0.815199    5.677887
H       1.004931    2.130809    1.030400
H      -0.462887    2.394824    0.073150
H      -0.594293    1.922675    1.778566
H       0.733290   -0.825540   -1.143789
H       1.880956    0.415120   -0.438738
H       0.171435   -1.577200    1.250521
H       2.402834   -1.147964    2.291189
H       2.259811    0.572331    2.004953
H      -0.488180   -0.904755    6.264588
H       0.283688    0.652125    6.559520
H      -2.010210    0.408415    4.954309
