19

C       0.025282    1.453534    0.072979
C      -0.005652   -0.060470    0.017967
C       1.085387   -0.662307   -0.857398
O       1.089055   -2.073707   -0.964819
C      -0.176741   -2.679835   -1.115646
C      -1.142052   -2.205426   -0.037776
O      -0.467815   -2.148072    1.254968
C      -0.581439   -0.728420    1.250724
C      -1.382484   -0.687330   -0.026893
H       0.970512    1.815581    0.492985
H      -0.086160    1.887610   -0.927410
H      -0.787725    1.843769    0.693856
H       0.988149   -0.205851   -1.860133
H       2.077300   -0.397989   -0.473457
H      -0.620374   -2.478685   -2.107201
H       0.004090   -3.755949   -1.033456
H      -2.044612   -2.821811    0.014713
H      -0.703995   -0.231173    2.206822
H      -2.295326   -0.171894   -0.296466
