21

O      -0.919880    1.040790    0.276694
C       0.226257    0.729054    0.088657
C       1.394752    1.711985    0.041283
C       1.223169    2.859628    1.043376
C       2.001077    4.155306    0.731017
C       3.348696    3.992056   -0.001343
C       4.209163    2.791078    0.426800
C       3.774544    1.460040   -0.197123
O       2.550908    0.931241    0.281362
H       0.538218   -0.323236   -0.087988
H       1.406907    2.102141   -0.994848
H       0.153807    3.079980    1.118403
H       1.529530    2.456623    2.015113
H       1.370730    4.821535    0.130436
H       2.167737    4.681069    1.678314
H       3.172017    3.912322   -1.082455
H       3.922153    4.916180    0.132064
H       5.244635    2.963343    0.106564
H       4.233816    2.692126    1.519115
H       3.726680    1.576563   -1.294097
H       4.517284    0.685860    0.019928
