17

N      -0.044089    1.356156    0.564082
C      -0.000591    0.006625    0.050720
C       0.892039   -0.316250   -1.109895
C       1.190478   -0.908009    0.251247
C      -1.373200   -0.627171    0.079330
C      -2.289790   -0.550596   -1.071380
O      -1.595814   -1.761925   -0.756174
C      -1.949695   -0.729745    1.413421
N      -2.368832   -0.782973    2.489049
H      -0.006937    1.359834    1.579455
H       0.744415    1.897295    0.229849
H       0.513852   -0.988939   -1.870274
H       1.529686    0.479231   -1.481762
H       2.028000   -0.509731    0.813235
H       1.012970   -1.969983    0.382434
H      -3.364632   -0.576394   -0.910187
H      -1.943907   -0.029750   -1.961191
