20

C      -0.355357    1.363009    0.260485
C       0.061213   -0.075371   -0.000507
C       0.931242   -0.370389   -1.262541
C       2.020659   -0.957861   -0.321652
N       1.183271   -0.569022    0.817536
C       1.229542   -0.838605    2.134444
O       0.318909   -0.561993    2.908938
C       2.498682   -1.511828    2.666081
O       2.394280   -1.680699    4.047949
H       0.499813    2.040459    0.168227
H      -1.119737    1.669623   -0.461408
H      -0.767306    1.457960    1.267842
H      -0.809460   -0.736548    0.087486
H       0.502487   -1.076185   -1.973835
H       1.244605    0.529705   -1.794017
H       2.171296   -2.040208   -0.409175
H       2.998062   -0.464644   -0.352114
H       2.631919   -2.479464    2.153472
H       3.372326   -0.893817    2.402877
H       1.514506   -1.323453    4.263779
