18

N       0.012834    1.170354   -0.352120
C       0.020337   -0.042950   -0.036144
O       1.048582   -0.863493    0.374845
C       0.136809   -2.001222    0.521057
C      -1.046346   -1.118524    0.068186
C      -2.147061   -0.849365    1.076789
C      -3.299094    0.083367    0.645334
C      -4.195168   -1.145879    0.898874
O      -3.048056   -1.972832    1.205244
H       0.946146    1.580279   -0.283973
H       0.419980   -2.816666   -0.147336
H       0.107017   -2.347579    1.556963
H      -1.480212   -1.404289   -0.893159
H      -1.702798   -0.591492    2.048937
H      -3.471462    0.948139    1.285723
H      -3.242503    0.414469   -0.392416
H      -4.873851   -1.062622    1.756476
H      -4.756315   -1.529798    0.039350
