12

O       0.039229    1.360370    0.245704
C       0.059471    0.029632    0.039871
C       0.115983   -0.763928   -1.090338
O       0.168131   -0.293239   -2.359394
N       0.112184   -2.071326   -0.761435
C       0.054343   -2.110862    0.566277
N       0.019995   -0.838451    1.090056
C       0.028016   -3.260591    1.382585
N       0.004550   -4.181066    2.087687
H       0.075200    1.796080   -0.613905
H       0.201907   -1.058549   -2.945859
H      -0.025390   -0.583763    2.063889
