17

C       0.135179    1.470244   -0.223630
O       1.499165    1.357572    0.288152
C       1.145561    0.144224    1.034273
C       1.561985   -1.247163    0.541407
C       0.310637   -2.137473    0.888873
C      -0.224348   -2.145855   -0.523060
C      -0.889659   -1.226901    0.471237
C      -0.051708   -0.006492    0.090006
C       0.797972   -1.006974   -0.802252
H      -0.459760    2.161956    0.389182
H       0.110860    1.784520   -1.272301
H       1.062946    0.348783    2.107052
H       2.547961   -1.701623    0.641351
H       0.210735   -2.890248    1.659867
H      -0.619042   -2.950387   -1.129520
H      -1.852669   -1.313235    0.957245
H       1.240996   -0.722090   -1.751596
