18

C       0.019574   -1.199417   -0.042446
C       0.037736    0.001077   -0.010996
C       0.010510    1.459529    0.047754
C      -0.750761    1.975154    1.285534
C      -0.694880    3.507993    1.338364
C       0.756899    3.991418    1.219289
C       1.420417    3.353759   -0.002254
O       1.353721    1.935522    0.039569
H       0.015240   -2.260709   -0.078018
H      -0.505157    1.836622   -0.855260
H      -1.783902    1.614699    1.251404
H      -0.280339    1.543716    2.176109
H      -1.285003    3.921359    0.508721
H      -1.154508    3.873669    2.262373
H       0.803394    5.083345    1.137943
H       1.319528    3.705004    2.116106
H       0.941115    3.724950   -0.925538
H       2.484678    3.599556   -0.055870
