25

C       0.309976    1.345412   -0.231141
C       0.496733   -0.164759   -0.062337
C       0.705969   -0.585342    1.395940
C       0.896640   -2.094685    1.571705
C       1.034924   -2.525825    3.032867
O      -0.115891   -2.201380    3.808803
C       1.340731   -4.018460    3.180155
O       2.568292   -4.304386    2.548870
C       2.935136   -5.659428    2.643876
H       1.184868    1.895560    0.132956
H       0.160055    1.616356   -1.281044
H      -0.559618    1.701596    0.332536
H      -0.378694   -0.689461   -0.468603
H       1.352976   -0.498764   -0.663534
H       1.582954   -0.062418    1.802418
H      -0.147332   -0.257966    2.002335
H       0.042067   -2.632740    1.129746
H       1.784838   -2.436943    1.028944
H       1.856079   -1.967089    3.498060
H      -0.881326   -2.591543    3.371575
H       1.376955   -4.272442    4.251508
H       0.523565   -4.612977    2.728917
H       3.046738   -5.979363    3.691887
H       2.194426   -6.317962    2.162694
H       3.894939   -5.776382    2.134684
