23

C       0.122014    1.552847   -0.364002
C       0.037183    0.068580   -0.078893
C       1.272490   -0.800639   -0.089206
C       0.532100   -0.559387    1.207258
C       1.155523    0.229120    2.336319
C       0.132663    0.878893    3.313040
C       0.835370    0.816243    4.647991
C       1.896586    0.011888    4.615042
C       2.093803   -0.609335    3.253196
H       1.047588    1.991938    0.019342
H       0.096696    1.741510   -1.443172
H      -0.715617    2.097430    0.086828
H      -0.856004   -0.397116   -0.488832
H       1.226983   -1.782012   -0.549011
H       2.228354   -0.299376   -0.214025
H      -0.067132   -1.397468    1.560384
H       1.762882    1.038833    1.917078
H      -0.137817    1.897029    3.010670
H      -0.808650    0.309506    3.342193
H       0.474584    1.342221    5.525484
H       2.533676   -0.219527    5.462011
H       1.799239   -1.669659    3.264659
H       3.134629   -0.587661    2.910895
