18

N      -0.301340    1.387158   -0.411650
C      -0.123142    0.144311   -0.278256
O       1.057719   -0.502118   -0.500567
C       0.954689   -1.893030   -0.163244
C      -0.548826   -2.240480   -0.117212
C      -0.931449   -3.121320    1.094599
C      -1.314830   -2.102081    2.143191
C      -1.458360   -0.879995    1.633357
C      -1.185003   -0.851945    0.142797
H       0.568988    1.846917   -0.685618
H       1.508888   -2.459286   -0.915864
H       1.428571   -2.051262    0.813316
H      -0.865057   -2.672314   -1.068722
H      -1.776488   -3.782836    0.862828
H      -0.109693   -3.775845    1.411341
H      -1.479431   -2.367553    3.181642
H      -1.752820    0.012419    2.172091
H      -2.100122   -0.651940   -0.423460
