19

C      -0.097116    1.431143   -0.116089
O      -0.211490    0.029153   -0.189593
C       0.628611   -0.584383   -1.163298
C       2.077454   -0.707107   -0.669453
C       0.025368   -1.940072   -1.459765
C      -0.287762   -2.876636   -0.326837
N      -0.162491   -2.192637   -2.697518
O      -0.673336   -3.485756   -2.895930
H       0.893374    1.759857    0.231009
H      -0.296017    1.905413   -1.089589
H      -0.845448    1.775640    0.602109
H       0.608278   -0.003895   -2.096207
H       2.124681   -1.303174    0.246665
H       2.695023   -1.188187   -1.433588
H       2.506714    0.276794   -0.459678
H      -0.340192   -2.329857    0.615118
H      -1.237029   -3.384390   -0.511806
H       0.478566   -3.656342   -0.244602
H      -0.800050   -3.506946   -3.850209
