18

C      -0.762607   -0.687984    1.169211
N      -0.032906   -0.105700    0.049998
C       0.602115   -0.715728   -0.997171
N       1.225506   -0.110304   -1.947392
C       1.268456    1.335527   -1.922303
C       0.590384   -2.232155   -1.076064
C       1.308522   -2.848744   -2.255309
O       0.033728   -2.906489   -0.235901
H      -1.622552   -1.276171    0.840831
H      -0.131831   -1.336696    1.781249
H      -1.119811    0.139130    1.788662
H       0.013392    0.898020    0.040972
H       0.262419    1.787703   -1.962159
H       1.763186    1.726727   -1.016561
H       1.827821    1.701918   -2.786437
H       2.358523   -2.545771   -2.262219
H       1.220984   -3.933779   -2.188045
H       0.882698   -2.484198   -3.193420
