16

C       0.030281    1.540953   -0.007591
N       0.055534    0.082033    0.010812
C       0.744035   -0.611316   -1.078791
C       2.286715   -0.588929   -0.817544
C       2.432677   -0.032225    0.558915
O       3.350458    0.401390    1.199165
C       1.018031   -0.569357    0.941725
C       1.304491   -1.642991   -0.196532
O       1.286503   -2.999019   -0.259826
H       1.019103    2.005471   -0.155539
H      -0.631699    1.874642   -0.812502
H      -0.379784    1.901685    0.940329
H       0.361761   -0.681547   -2.090137
H       3.018942   -0.731467   -1.599906
H       0.719465   -0.725387    1.976192
H       2.074305   -3.348308    0.173705
