17

C       0.030000    1.345075    0.009999
O      -0.057332   -0.081836    0.002948
C      -1.292840   -0.590080    0.010094
N      -2.343309    0.126260    0.022185
N      -1.242048   -1.982110    0.002305
C      -2.351742   -2.944105    0.004951
C      -1.294133   -4.081116   -0.009976
C      -0.232548   -2.962621   -0.011516
O       0.959712   -2.904024   -0.020462
H       1.097080    1.567838    0.002893
H      -0.459161    1.766715   -0.871859
H      -0.445339    1.757091    0.903880
H      -3.187589   -0.439468    0.025973
H      -2.971514   -2.891355    0.904926
H      -2.985115   -2.880543   -0.884800
H      -1.269908   -4.714981    0.877703
H      -1.283657   -4.704288   -0.905462
