14

C      -0.210039    1.515681    0.100349
C       0.014974    0.005774   -0.070221
O       0.682036   -0.304821   -1.275580
C       0.736111   -0.556969    1.123837
N       1.953254   -1.022618    1.040614
O       2.256392   -1.393792    2.357051
C       1.170944   -1.106172    3.075138
N       0.198546   -0.588976    2.396081
H       0.749285    2.040432    0.158642
H      -0.762701    1.895654   -0.762058
H      -0.777336    1.724727    1.011571
H      -0.962329   -0.489084   -0.125757
H       1.630130   -0.206437   -1.129265
H       1.206526   -1.330605    4.131305
