16

O       0.141315    1.359012    0.194699
C       0.070388   -0.035951   -0.063394
C      -1.334465   -0.536013   -0.127045
N      -2.131264   -0.861948    1.088797
C      -1.920040   -1.886409    0.036406
C      -2.903511   -1.607577   -1.146787
N      -3.722539   -0.418173   -0.813253
C      -2.333960   -0.251148   -1.301391
H      -0.427263    1.542714    0.950433
H       0.572402   -0.181428   -1.027080
H       0.630496   -0.620513    0.686809
H      -1.454172   -1.078877    1.823460
H      -1.440667   -2.832653    0.252856
H      -3.213828   -2.329837   -1.889961
H      -4.328652   -0.255538   -1.618646
H      -2.098246    0.319552   -2.189928
