19

C       0.341848    1.355422    0.328514
C      -0.202208   -0.005191   -0.120067
C       0.550479   -0.575302   -1.304822
C       1.974227   -1.179723   -1.229183
C       2.044396   -2.073816   -0.025698
O       2.775972   -2.282584    0.886759
O       0.865450   -2.748843   -0.326762
C       0.761202   -2.018284   -1.592908
C       0.398435   -2.818589   -2.797337
H       1.385582    1.273862    0.647943
H       0.296744    2.091134   -0.482143
H      -0.237374    1.749246    1.168696
H      -0.170444   -0.717733    0.709087
H      -1.258638    0.091566   -0.401269
H       0.455190    0.014246   -2.217515
H       2.807933   -0.816899   -1.812996
H      -0.627735   -3.192450   -2.716197
H       0.463462   -2.199407   -3.696399
H       1.067534   -3.676464   -2.910501
