19

O       0.141687    1.299909   -0.616475
C       0.028467    0.050574   -0.010425
C      -0.244865   -1.185588   -0.849417
C      -1.300965   -0.625585    0.087854
O      -1.468026   -1.210944    1.351379
C      -0.189657   -1.258866    1.967832
C      -0.168612   -1.663779    3.401818
C       0.343439   -2.619712    2.336510
C       0.679649   -0.166943    1.350864
H       0.980751    1.327323   -1.089299
H      -0.418814   -1.007465   -1.905432
H       0.244136   -2.123187   -0.608625
H      -2.215274   -0.200435   -0.306529
H       0.547301   -1.186133    4.062193
H      -1.125937   -1.891665    3.856803
H      -0.282127   -3.471773    2.095709
H       1.412373   -2.797327    2.270729
H       1.733260   -0.460102    1.304999
H       0.605698    0.772950    1.909786
