11

C       0.061145    1.487303    0.056590
C      -0.073342    0.015158   -0.006164
C      -1.075806   -0.819617   -0.270746
O      -0.622142   -2.123869   -0.184056
C       0.703404   -2.069937    0.145504
O       1.424070   -3.000393    0.305809
O       1.054694   -0.750680    0.258490
H       0.806166    1.844895   -0.662148
H      -0.897353    1.958752   -0.171385
H       0.380580    1.810308    1.053212
H      -2.110234   -0.672909   -0.524884
