22

C       0.029602    1.497264    0.245915
C      -0.034161   -0.010520   -0.011855
C      -1.460609   -0.565812    0.049338
C      -1.523675   -2.070959   -0.208700
C      -2.933864   -2.636387   -0.130760
O      -3.909865   -1.980248    0.157444
N      -3.030727   -3.980564   -0.508874
C      -2.471107   -5.094349    0.237938
C      -3.953227   -4.892860    0.122241
H       1.057972    1.868637    0.196472
H      -0.560693    2.049487   -0.493568
H      -0.368068    1.746101    1.235998
H       0.402712   -0.232988   -0.994804
H       0.593518   -0.534778    0.721750
H      -1.905146   -0.350195    1.027670
H      -2.094283   -0.049854   -0.681325
H      -1.111757   -2.323988   -1.193792
H      -0.895997   -2.612787    0.512895
H      -1.971810   -5.861712   -0.347486
H      -2.012284   -4.882307    1.201257
H      -4.488527   -4.525267    0.993514
H      -4.532303   -5.522547   -0.546912
