18

C       0.025358    1.484891    0.195252
C      -0.087326   -0.043240    0.043625
C      -1.465488   -0.511589   -0.021847
C      -2.620650   -0.860061   -0.072318
C      -3.942554   -1.374757   -0.136555
C      -4.145431   -2.889425   -0.167596
O      -4.957309   -3.358171    0.886785
N      -4.909899   -0.524430   -0.172942
O      -6.150861   -1.183970   -0.268583
H       1.076496    1.783981    0.240263
H      -0.444055    1.994439   -0.650187
H      -0.469956    1.821342    1.109652
H       0.444881   -0.365480   -0.861049
H       0.421029   -0.537545    0.881706
H      -4.558843   -3.153365   -1.154314
H      -3.176198   -3.381191   -0.067406
H      -5.804264   -2.906175    0.791814
H      -6.774201   -0.450281   -0.260826
