21

C      -0.000133    1.565593   -0.039279
C       0.041921    0.035548   -0.010968
C       0.684259   -0.533346   -1.277025
O       0.515718   -1.939278   -1.371792
C       0.889949   -2.668408   -0.238917
C       2.231654   -2.527297    0.413846
C       0.982256   -2.023587    1.124428
C       0.759257   -0.519174    1.242017
O       2.026184    0.103931    1.458594
H       1.001070    1.992446   -0.165753
H      -0.614071    1.926291   -0.870400
H      -0.429341    1.970302    0.884925
H      -0.987462   -0.345969    0.023918
H       0.208398   -0.124316   -2.173174
H       1.749836   -0.256732   -1.310211
H       0.457434   -3.661275   -0.304362
H       2.713976   -3.419825    0.796645
H       2.915264   -1.769073    0.053126
H       0.633590   -2.607059    1.969658
H       0.110570   -0.334832    2.111565
H       1.868642    1.032961    1.653972
