17

C      -0.066834    1.446411   -0.148938
C      -0.007468   -0.005184   -0.070466
C       0.033862   -1.205149   -0.004522
C       0.113643   -2.667321    0.054258
C      -1.224205   -3.253637    0.246920
N      -2.268291   -3.732575    0.370959
C       0.806708   -3.251576   -1.190449
C       0.566993   -4.645069   -1.631618
N       0.081626   -3.503510   -2.432147
H       0.584912    1.910873    0.598558
H       0.247809    1.801043   -1.136053
H      -1.086312    1.805862    0.026283
H       0.715244   -2.956511    0.928746
H       1.789635   -2.809195   -1.331796
H       1.375660   -5.212918   -2.081910
H      -0.161284   -5.237107   -1.084576
H      -0.920370   -3.387580   -2.290887
