14

O      -0.220507   -0.035580    0.169200
C      -0.073777    1.147620    0.073656
C      -1.193115    2.245521    0.067832
N      -0.562915    3.463276    0.619001
C       0.684285    3.277547    0.448201
N       1.882269    3.696391    1.024146
C       2.374889    2.270770    0.957842
C       1.220742    1.980035   -0.061415
H      -1.570150    2.379535   -0.956078
H      -2.038941    1.932995    0.687351
H       1.856143    4.195666    1.907297
H       3.392083    2.175450    0.575284
H       2.268799    1.735571    1.906045
H       1.565867    1.947481   -1.097932
