21

C      -0.062558    1.551831    0.045864
C       0.040898    0.042819    0.054287
C       1.357877   -0.647807   -0.216820
O       2.527053    0.107577   -0.362392
C       0.766820   -0.694695    1.175816
C       1.435911    0.031208    2.355145
C       1.453948   -1.004343    3.517816
C       0.602820   -2.142280    3.007272
C       0.244511   -1.969015    1.735659
H       0.889445    2.016839    0.313170
H      -0.347402    1.918873   -0.947059
H      -0.820754    1.903165    0.754105
H      -0.835859   -0.470207   -0.336291
H       1.343307   -1.569694   -0.799614
H       2.502252    0.536404   -1.224508
H       2.435634    0.380693    2.091743
H       0.852600    0.911783    2.641989
H       2.472608   -1.348972    3.741195
H       1.067222   -0.581726    4.452866
H       0.349829   -3.003449    3.615754
H      -0.347616   -2.660625    1.145275
