17

C       0.049875    1.546538   -0.244704
C       0.014501    0.060131    0.017575
N       1.293077   -0.672875   -0.012407
C       0.538479   -0.593802    1.245895
C       1.188200    0.182375    2.383641
O       0.214046    0.850577    3.183790
C       2.038545   -0.696928    3.191712
C       2.682243   -1.449546    3.873536
H       0.961681    2.001041    0.148025
H       0.019569    1.743802   -1.321501
H      -0.809684    2.041071    0.218601
H      -0.843975   -0.444971   -0.425286
H       1.187384   -1.588260   -0.439678
H       0.016044   -1.489565    1.581142
H       1.805323    0.974639    1.950173
H      -0.198619    0.190569    3.751513
H       3.273872   -2.097354    4.472205
