17

O      -0.092894   -0.037463   -0.231585
C      -0.004180    1.166977   -0.155559
C       1.236226    1.893910   -0.088568
C       2.258133    2.535681   -0.036779
C       3.486001    3.311864    0.033107
C       3.244077    4.815374    0.196812
C       4.471377    5.744590    0.076874
C       3.677462    6.396144   -1.073522
O       2.632682    5.403453   -0.968802
H      -0.906504    1.811629   -0.131783
H       4.094796    2.956642    0.876115
H       4.075993    3.142218   -0.876619
H       2.632350    4.990858    1.091851
H       4.684219    6.374779    0.940856
H       5.387561    5.237009   -0.233095
H       3.301408    7.404751   -0.862761
H       4.148486    6.391906   -2.062600
