20

C       0.009774    1.558180   -0.071845
C      -0.020107    0.047172    0.113500
O      -0.072721   -0.467446    1.216662
N       0.034483   -0.673215   -1.048492
C       0.124346   -2.137876   -1.124396
C       1.417958   -2.671481   -0.497409
C      -1.125250   -2.791630   -0.483423
C       0.050149   -2.491673   -2.610617
O       0.614917   -3.416339   -3.127160
H       1.027697    1.920382    0.105442
H      -0.304350    1.881732   -1.067918
H      -0.638910    2.012043    0.678875
H       0.150211   -0.155939   -1.905932
H       1.422662   -2.456390    0.571877
H       1.491929   -3.749062   -0.657535
H       2.291083   -2.200898   -0.958479
H      -2.040818   -2.459036   -0.983175
H      -1.056694   -3.879636   -0.564974
H      -1.178132   -2.505730    0.567144
H      -0.630640   -1.827414   -3.198270
