12

O      -0.011015    0.007938   -0.180959
C      -0.057762    1.194852   -0.047712
C      -1.275665    2.084263    0.119834
C      -0.690140    3.514874    0.046132
O       0.748581    3.403060    0.116384
C       1.181333    2.114065    0.008380
O       2.328940    1.802967   -0.008545
C      -1.058799    4.214720   -1.191354
N      -1.379349    4.756964   -2.159007
H      -2.025725    1.883039   -0.645966
H      -1.729329    1.895393    1.097156
H      -0.998331    4.130800    0.894433
