19

C      -0.217983    1.554349   -0.211373
C       0.056539    0.047388   -0.068945
C       0.830316   -0.523562   -1.204956
N       1.995309   -1.077760   -1.209327
C       2.219878   -1.451195   -2.533558
C       1.150434   -1.071423   -3.282526
N       0.846175   -1.077910   -4.629183
C      -0.514965   -1.430963   -5.032328
O       0.246316   -0.477113   -2.451494
H       0.718288    2.118463   -0.255453
H      -0.781964    1.763564   -1.124573
H      -0.798869    1.920768    0.640094
H       0.633731   -0.155942    0.836386
H      -0.897082   -0.487907    0.027084
H       3.120916   -1.954497   -2.843859
H       1.554144   -1.569182   -5.156771
H      -0.595926   -1.327201   -6.116683
H      -0.804910   -2.454275   -4.750184
H      -1.218113   -0.735581   -4.570378
