17

O       0.164524    1.322737    0.528424
C      -0.002398    0.066597   -0.115413
C      -1.445468   -0.326765    0.034444
O      -1.912042   -1.365316   -0.827111
C      -2.512724   -0.070735   -0.952270
C      -3.850654    0.093617   -0.237732
C      -3.536426   -0.103470    1.244707
O      -3.040999   -1.396630    1.596641
C      -2.093541   -0.342898    1.413876
H       1.106330    1.504874    0.593445
H       0.247974    0.109573   -1.185361
H       0.632704   -0.706993    0.344065
H      -2.334827    0.428742   -1.902662
H      -4.233338    1.107365   -0.402538
H      -4.602903   -0.614468   -0.599128
H      -4.156279    0.375815    1.999351
H      -1.519086   -0.041601    2.283674
