18

N       0.070548    1.425885    0.042421
C       0.020284   -0.019517    0.013990
C      -0.498680   -0.744910    1.238882
C      -1.321009   -0.774537   -0.020496
N      -2.484127    0.059080   -0.057744
C      -3.341621   -0.054949   -1.236533
C      -3.779406   -0.608958    0.074071
C       1.112896   -0.628010   -0.704509
N       1.966185   -1.128124   -1.304478
H       0.166418    1.773997   -0.908754
H      -0.836492    1.753292    0.368436
H       0.003765   -1.650840    1.555168
H      -0.848569   -0.102923    2.040083
H      -1.353286   -1.711825   -0.580171
H      -3.757987    0.876950   -1.606722
H      -3.049181   -0.764204   -2.008088
H      -3.781990   -1.690953    0.184903
H      -4.517139   -0.085613    0.674891
