22

C       0.331780    1.320046    0.153424
C      -0.366710    0.013788   -0.228294
N       0.243463   -0.636015   -1.379792
C       0.929511   -1.806179   -1.302649
O       1.032590   -2.438407   -0.254452
C       1.571161   -2.284084   -2.599514
C       1.565704   -3.823147   -2.711826
C       2.161948   -4.292883   -4.033089
O       2.320376   -4.402919   -1.669475
H       1.377861    1.138373    0.416012
H       0.307096    2.042779   -0.669750
H      -0.164902    1.778768    1.013992
H      -0.311637   -0.708409    0.588258
H      -1.426939    0.197839   -0.440588
H       0.214756   -0.160178   -2.267110
H       1.076956   -1.832636   -3.467588
H       2.615803   -1.946558   -2.600484
H       0.514444   -4.159658   -2.660259
H       3.193034   -3.938373   -4.133635
H       2.175818   -5.385599   -4.062414
H       1.579073   -3.928100   -4.884820
H       1.994590   -3.985317   -0.854797
