23

C       0.136712    0.724752   -0.704001
O      -0.046340   -0.429048    0.081357
C       0.566085   -0.358752    1.371748
C       0.189248   -1.628399    2.157161
C       1.383564   -2.614604    2.000034
C       1.675730   -3.383057    3.298062
C       1.145453   -3.606924    0.841566
C       2.507240   -1.660993    1.635782
C       2.080131   -0.442900    1.311047
H       1.188240    0.880680   -0.987210
H      -0.451505    0.592764   -1.615879
H      -0.216436    1.630502   -0.184412
H       0.213573    0.559731    1.868169
H       0.066904   -1.369522    3.213598
H      -0.758641   -2.036535    1.798173
H       0.819607   -4.004400    3.584014
H       2.539967   -4.046307    3.178640
H       1.888307   -2.698524    4.125919
H       0.858749   -3.069512   -0.065999
H       2.047974   -4.190737    0.628338
H       0.344762   -4.311247    1.094522
H       3.543525   -1.987331    1.621568
H       2.709671    0.380762    0.994016
