17

C       0.056543   -1.201575   -0.052912
C       0.066448   -0.002418   -0.110801
C       0.047093    1.449930   -0.192585
O       1.285871    1.974414    0.291227
C       1.379330    3.340264    0.169432
C       1.600763    4.057447   -1.149477
C       2.594073    4.200847   -0.024519
O       2.143989    5.173967    0.921405
C       0.987816    4.353240    1.248919
H       0.053604   -2.262401    0.000625
H      -0.112470    1.769869   -1.233033
H      -0.792174    1.845614    0.399608
H       1.926782    3.398030   -1.948736
H       0.995899    4.908089   -1.452412
H       3.654472    3.989432   -0.086087
H       0.043774    4.899399    1.141740
H       1.079229    3.942471    2.260512
