19

C      -0.177210    0.953935   -0.555673
C       1.040028    1.253066    0.297707
C       0.459964   -0.122096    0.285230
O      -0.178958   -0.533667    1.460162
C      -1.188216   -1.476386    1.247957
C      -0.881571   -3.011372    1.251797
C      -0.531412   -2.927321    2.755873
C      -1.826623   -2.119903    2.498143
O      -2.302787   -3.207149    1.611919
H      -1.126504    1.348202   -0.210867
H      -0.066429    0.908158   -1.633347
H       1.996016    1.416488   -0.186366
H       0.879205    1.833385    1.198960
H       1.009127   -0.912938   -0.224912
H      -1.902103   -1.171570    0.475798
H      -0.471123   -3.653280    0.471938
H      -0.671509   -3.854694    3.312286
H       0.362397   -2.372097    3.041973
H      -2.539525   -1.695593    3.205148
