15

N       0.013031    1.329115    0.108592
C      -0.011153   -0.030031    0.033522
N      -1.208347   -0.637247    0.128808
C      -1.160161   -1.958725    0.110533
C       0.055424   -2.641874   -0.007380
C       0.160228   -4.145160   -0.003421
O      -1.119574   -4.687376   -0.284887
N       1.195785   -1.963700   -0.129622
N       1.180549   -0.644114   -0.109860
H       0.862701    1.784628   -0.180094
H      -0.857836    1.811364   -0.035725
H      -2.097023   -2.502263    0.177223
H       0.913095   -4.445607   -0.746160
H       0.527138   -4.480687    0.980133
H      -1.075271   -5.639873   -0.165901
