16

C      -0.090177    1.498978    0.062635
C      -0.024916   -0.010437   -0.089229
C       0.911327   -0.473571   -1.195214
N       0.964174   -1.923882   -1.176691
C       0.925312   -2.661963   -0.031052
O       1.006446   -3.867273    0.004844
C       0.797361   -1.837146    1.277923
O       1.050435   -2.316488    2.341430
O       0.425577   -0.536222    1.178379
H       0.904251    1.912388    0.253750
H      -0.494183    1.955858   -0.845503
H      -0.737898    1.762233    0.901688
H      -1.026407   -0.416077   -0.285353
H       0.526175   -0.141499   -2.163687
H       1.904850   -0.022864   -1.055775
H       1.159662   -2.440141   -2.022324
