16

O      -0.060487    1.359443    0.127994
C      -0.000088   -0.030661    0.013576
C      -0.640313   -0.888605    1.095363
C      -1.317448   -0.735898   -0.238644
C      -2.587454    0.092212   -0.382274
C      -3.775719   -0.660624    0.005400
C      -4.742029   -1.299003    0.325459
C       1.186682   -0.529714   -0.649735
N       2.147507   -0.917245   -1.164196
H       0.606028    1.642731    0.764583
H      -0.177986   -1.835005    1.349230
H      -1.052865   -0.331847    1.930176
H      -1.262364   -1.593308   -0.900990
H      -2.499389    1.000503    0.221794
H      -2.685035    0.427454   -1.422283
H      -5.603344   -1.852609    0.606793
