18

O       0.254617    1.209213   -0.477351
C       0.128808   -0.124401   -0.045764
C       0.181831   -0.364483    1.492579
N      -1.274540   -0.698296    1.538961
C      -2.137941    0.527350    1.626482
C      -2.523923    0.390075    0.121939
C      -2.659005    1.556828   -0.722550
C      -2.848407    2.522837   -1.412658
C      -1.343005   -0.613678    0.024199
H       1.178617    1.466343   -0.392946
H       0.776301   -0.793521   -0.629851
H       0.793745   -1.220971    1.794157
H       0.466990    0.508917    2.088882
H      -2.958279    0.435705    2.342958
H      -1.575468    1.443212    1.833778
H      -3.443612   -0.200908    0.047647
H      -2.978085    3.379514   -2.025939
H      -1.541574   -1.537228   -0.525888
