17

N       0.007280   -1.231337   -0.013209
C      -0.019068   -0.078812   -0.085379
C      -0.058629    1.385431   -0.149984
N       1.291732    1.942844   -0.044520
C       1.867042    1.999944    1.338660
C       2.738984    3.237946    0.969559
C       2.300142    4.016280    2.224648
C       1.028555    3.244188    1.820007
C       1.348377    3.403452    0.285797
H      -0.480881    1.678491   -1.118437
H      -0.757707    1.738151    0.627795
H       2.155084    1.110119    1.898987
H       3.697375    3.205486    0.453910
H       2.768145    3.725575    3.169237
H       2.259858    5.105741    2.137441
H       0.053435    3.248925    2.306501
H       1.021155    4.183072   -0.404228
