27

C       0.122511    1.543470    0.043998
C      -0.041624    0.013178    0.036913
C       0.846915   -0.581730    1.144190
C      -1.534594   -0.474276    0.077625
C      -2.275346    0.087814    1.307874
C      -2.254101    0.005529   -1.200784
C      -1.537475   -2.026023    0.120496
C      -2.871419   -2.725729   -0.131363
O      -2.663599   -4.108842    0.133033
H       1.174437    1.804123   -0.112659
H      -0.453529    2.038004   -0.741860
H      -0.176322    1.976953    1.004313
H       0.357032   -0.349030   -0.922159
H       0.495943   -0.296730    2.142219
H       0.897853   -1.671817    1.104102
H       1.869493   -0.203321    1.043011
H      -2.324901    1.180315    1.280280
H      -3.305954   -0.277792    1.348224
H      -1.789261   -0.203702    2.244033
H      -1.780960   -0.404996   -2.100276
H      -3.304377   -0.301325   -1.206260
H      -2.244741    1.095064   -1.285668
H      -0.820221   -2.412192   -0.615189
H      -1.188815   -2.370136    1.099587
H      -3.656944   -2.317941    0.524068
H      -3.200981   -2.574681   -1.169559
H      -3.479991   -4.576364   -0.065643
