18

C      -0.095729    1.555532    0.033893
C       0.026791    0.049463    0.033611
C      -1.214046   -0.822424    0.339030
N      -0.366191   -1.704314    1.179065
C       0.741836   -0.716993    1.188807
C       2.032114   -1.242389    0.587928
C       1.802593   -1.132151   -0.920343
O       2.463629   -1.588502   -1.804442
O       0.688901   -0.377223   -1.166301
H       0.891916    2.023527   -0.025263
H      -0.681303    1.892212   -0.827259
H      -0.591123    1.901858    0.945487
H      -1.984258   -0.261676    0.884814
H      -1.671642   -1.320308   -0.521243
H      -0.746736   -1.938337    2.087794
H       0.867049   -0.151819    2.117871
H       2.905819   -0.635724    0.850289
H       2.242297   -2.279557    0.853595
