21

C      -0.003383    1.473654    0.069630
C       0.042427   -0.034311   -0.024628
C       1.064972   -0.668270   -0.979906
C       0.301083   -1.815094   -1.684399
C      -0.818056   -2.197993   -0.699424
O      -0.304003   -3.039516    0.340742
C       0.183961   -2.236388    1.413457
C      -0.367118   -0.837031    1.202174
C      -1.219739   -0.872964   -0.037500
H       0.934240    1.875915    0.471097
H      -0.161546    1.926855   -0.916073
H      -0.813999    1.809343    0.724661
H       1.426845    0.075501   -1.696193
H       1.946951   -1.039745   -0.445611
H      -0.152736   -1.442562   -2.610522
H       0.926116   -2.675592   -1.937024
H      -1.642085   -2.737343   -1.173024
H      -0.175861   -2.661451    2.358701
H       1.284066   -2.259971    1.435462
H      -0.687236   -0.277331    2.074674
H      -2.224511   -0.472611   -0.094621
