18

C       0.472772    1.226774    0.050434
N      -0.251442   -0.024814   -0.018531
C      -0.172369   -0.959760   -1.088205
O       0.135829   -0.799930   -2.232789
C      -0.740782   -2.091204   -0.147185
C      -0.180094   -2.977857    1.033941
C       0.993721   -1.993722    1.179490
C      -0.284406   -1.125853    0.942969
C      -1.024717   -2.016336    1.995962
H       1.456744    1.101177    0.523684
H       0.620288    1.583446   -0.972192
H      -0.094289    1.976641    0.609573
H      -1.821865   -2.163799   -0.291066
H      -0.145521   -4.065831    1.099968
H       1.464904   -1.928893    2.162255
H       1.728960   -1.993137    0.370812
H      -2.111188   -2.080231    1.917779
H      -0.689000   -1.965908    3.035399
