14

C      -0.016076    1.361063    0.009651
O       0.029741   -0.072406   -0.044949
C       0.640655   -0.576517   -1.117947
O       1.136603    0.059469   -2.008116
C       0.617596   -2.116777   -1.048732
O       0.121729   -2.752761   -0.158517
O       1.228449   -2.620889   -2.121764
C       1.274285   -4.054358   -2.176355
H       0.995333    1.774837    0.020532
H      -0.550765    1.758888   -0.856417
H      -0.541790    1.603408    0.932270
H       1.809135   -4.452160   -1.310375
H       0.262883   -4.468154   -2.187051
H       1.799845   -4.296705   -3.099061
