21

O      -0.073708    1.433469   -0.073912
C      -0.047558    0.035440   -0.005884
C      -0.495410   -0.667462    1.255223
C      -1.361559   -0.683713    0.004104
C      -2.658149    0.106441    0.027113
C      -3.774189   -0.719289    0.686412
C      -3.790054   -2.141417    0.187740
C      -2.775946   -2.700483   -0.471656
C      -1.483741   -1.983971   -0.776525
H       0.629712    1.769897    0.490671
H       0.761998   -0.426783   -0.573840
H       0.014671   -1.576447    1.558141
H      -0.821610   -0.034456    2.075104
H      -2.517472    1.061164    0.538419
H      -2.947891    0.341806   -1.005563
H      -3.649466   -0.716437    1.779625
H      -4.748239   -0.248794    0.501661
H      -4.686270   -2.724567    0.387677
H      -2.858346   -3.726808   -0.822074
H      -1.423481   -1.779453   -1.857417
H      -0.633289   -2.642998   -0.557882
