16

C      -0.033219   -1.181012   -0.034468
C       0.001438    0.021090   -0.029257
C       0.042862    1.460205    0.005724
O      -0.419476    2.122737   -1.187959
C       0.778273    2.942721   -1.260083
C       1.351269    2.309004    0.025341
C       0.908320    2.907333    1.379626
N      -0.389530    3.577911    1.159221
C      -0.357978    2.117161    1.367718
H      -0.065338   -2.242490   -0.051734
H       1.350624    2.715989   -2.166586
H       0.542788    4.008094   -1.208645
H       2.331292    1.838835   -0.002650
H       1.549890    3.183054    2.206608
H      -0.674565    3.996560    2.043660
H      -0.917023    1.647606    2.167606
