19

C      -0.001980    1.548369    0.005838
C       1.426891    2.045191   -0.004130
C       2.417309    1.222695    0.781548
C       1.918361    0.061076    1.530304
C       0.755783   -0.520925    1.204340
C      -0.014150   -0.002251    0.006193
C       0.739138   -0.521344   -1.202309
C       1.897095    0.060541   -1.544524
C       2.406350    1.222418   -0.803145
H      -0.524737    1.916776    0.895804
H      -0.536995    1.916464   -0.876944
H       1.568937    3.121231   -0.005300
H       3.269467    1.743742    1.203660
H       2.534161   -0.329681    2.335032
H       0.396101   -1.401478    1.726788
H      -1.044689   -0.366085    0.013384
H       0.372265   -1.402077   -1.719427
H       2.501705   -0.330496   -2.357559
H       3.252587    1.743315   -1.237186
