16

C      -0.002485   -1.203705   -0.021112
C      -0.015580   -0.007459    0.090700
C       0.014960    1.442777    0.214784
C       1.396463    2.015852   -0.167800
N       1.437205    3.460796   -0.032322
C       1.854769    4.216844    1.011951
C       1.600814    5.507647    0.616818
N       1.046574    5.480370   -0.626268
N       0.945075    4.241967   -1.016737
H      -0.010391   -2.261210   -0.118278
H      -0.741118    1.900505   -0.432817
H      -0.227371    1.740066    1.242331
H       2.176881    1.588010    0.465075
H       1.625447    1.774933   -1.207278
H       2.285225    3.788279    1.901422
H       1.786855    6.433526    1.136142
