17

C       0.269967    1.497925    0.070097
O       1.138188    0.415072   -0.260295
C      -0.228975    0.115611    0.051337
C      -0.461028   -0.660259    1.304684
C      -1.768501   -0.860092    2.110573
N      -0.759498   -1.680977    2.934049
C      -0.257333   -2.174225    1.565353
C       0.190600   -0.491312    2.696901
H       0.470658    1.982873    1.024345
H       0.022896    2.170099   -0.750455
H      -0.820657   -0.198417   -0.811030
H      -2.176180   -0.000585    2.650267
H      -2.563123   -1.465814    1.665926
H      -0.938790   -2.878155    1.079388
H       0.766409   -2.556261    1.585534
H       1.247463   -0.746793    2.801634
H      -0.069739    0.392997    3.285536
