19

C       0.106172    1.703793   -0.078262
C       0.078673    0.192641   -0.084869
C       0.576621   -0.671749   -1.190484
C       1.484958   -0.098382   -2.269449
C       2.759772    0.396359   -1.547357
O       2.869434    1.807698   -1.733091
C       2.577474   -0.042088   -0.063308
N       1.260716   -0.673193    0.122869
H       0.918412    2.127406   -0.670069
H      -0.841667    2.085939   -0.473702
H       0.200715    2.075853    0.948999
H      -0.774965   -0.207409    0.462538
H       0.025579   -1.575627   -1.440564
H       1.726812   -0.876357   -2.998583
H       1.038639    0.734857   -2.819903
H       3.653452   -0.081992   -1.970882
H       3.649882    2.110139   -1.257745
H       3.332372   -0.788363    0.207721
H       2.706552    0.813875    0.609518
