21

C      -0.161887    1.549833    0.114531
C       0.014853    0.053129   -0.002590
C       0.667899   -0.619039   -1.202186
C       1.374844    0.169876   -2.306769
C       2.894695    0.010419   -2.199554
C       3.767242    1.144135   -1.700267
C       3.426661    0.001787   -0.792134
O       2.474903    0.258860    0.208799
C       1.364654   -0.597724    0.137140
H       0.755690    2.082850   -0.140578
H      -0.966179    1.908678   -0.537287
H      -0.419528    1.823035    1.143252
H      -0.799982   -0.522090    0.430876
H       0.234443   -1.564299   -1.513426
H       1.036498   -0.187524   -3.282833
H       1.101493    1.228344   -2.264167
H       3.347163   -0.683326   -2.900745
H       4.783786    1.220898   -2.070838
H       3.286956    2.094160   -1.489719
H       4.201446   -0.705421   -0.500896
H       1.468500   -1.510611    0.722043
