18

C       0.025156    1.558563   -0.001079
C       0.006224    0.019553    0.041018
C       0.797122   -0.506247    1.252888
C      -1.400841   -0.518272    0.021622
C      -1.988775   -1.318077   -0.938373
N      -3.262696   -1.548758   -0.532996
N      -3.559747   -0.953335    0.635718
C      -2.435065   -0.329027    0.973789
H       1.053360    1.935031   -0.027545
H      -0.502036    1.936251   -0.882024
H      -0.462393    1.980535    0.884592
H       0.507673   -0.343577   -0.865661
H       1.828921   -0.139290    1.233829
H       0.341515   -0.173384    2.191912
H       0.821197   -1.599825    1.264803
H      -1.601147   -1.729001   -1.857779
H      -3.969543   -2.093126   -0.996658
H      -2.402101    0.238723    1.892669
