19

C       0.137617    1.082308    0.416575
O      -0.090521   -0.144920   -0.256948
C      -1.372148   -0.679643   -0.095778
C      -2.459333    0.050722   -0.862155
C      -1.478542   -2.152484    0.005210
C      -0.247087   -2.744487    0.707817
C      -0.620511   -1.886301    1.940852
O      -0.222550   -1.860963    3.071364
C      -1.799072   -1.257635    1.257036
H       1.194297    1.320925    0.279350
H      -0.464027    1.901578    0.000815
H      -0.074203    0.994681    1.490359
H      -2.186119    0.109344   -1.920117
H      -3.416185   -0.471232   -0.778146
H      -2.601448    1.069111   -0.488585
H      -2.191029   -2.721409   -0.578645
H      -0.352447   -3.806800    0.946126
H       0.721806   -2.559320    0.242565
H      -2.740137   -0.978781    1.716729
