20

O       0.033194    1.418771   -0.000153
C       0.035475    0.001949    0.019171
C       0.837698   -0.558681    1.203080
C       0.803694   -2.094271    1.235411
C      -0.640336   -2.614391    1.263189
C      -1.444235   -2.065498    0.076069
C      -1.403982   -0.533490    0.017437
O      -2.027490    0.062837    1.163461
H      -0.618584    1.682102    0.662032
H       0.510740   -0.313613   -0.918477
H       1.864916   -0.185927    1.139245
H       0.408226   -0.160986    2.130508
H       1.316208   -2.491661    0.347643
H       1.359429   -2.464963    2.103680
H      -0.656228   -3.709541    1.251486
H      -1.122203   -2.297333    2.195455
H      -1.035120   -2.455987   -0.865798
H      -2.487908   -2.402911    0.121207
H      -1.900786   -0.175543   -0.896000
H      -2.976190   -0.080473    1.102556
