15

O      -0.104615    1.438351   -0.078486
C      -0.010620    0.041164    0.032867
C       0.244409   -0.588354    1.450071
C      -1.115107   -1.285636    1.365447
C      -2.202165   -0.278573    1.190396
C      -1.376613   -0.650195   -0.024428
C      -1.948437   -1.230971   -1.193247
N      -2.394213   -1.710446   -2.148365
H       0.784964    1.805147   -0.103598
H       0.670888   -0.380617   -0.714988
H       1.095043   -1.272346    1.455670
H       0.349760    0.132309    2.265968
H      -1.319102   -2.310900    1.644536
H      -3.214051   -0.667453    1.178612
H      -2.098794    0.724064    1.593387
