15

O       0.119382    1.367969   -0.163528
C       0.035541   -0.028127   -0.145024
C      -1.374977   -0.522032   -0.003942
N      -2.326130    0.349945    0.082329
C      -3.618777   -0.111794    0.211576
N      -3.979558   -1.353501    0.255940
N      -2.977926   -2.252704    0.164947
C      -1.622017   -1.973021    0.030593
N      -0.658177   -2.811112   -0.057463
H      -0.789405    1.693579   -0.077596
H       0.457599   -0.469923   -1.061663
H       0.627213   -0.457022    0.679314
H      -4.404659    0.629369    0.282717
H      -3.283122   -3.214780    0.201805
H      -0.977499   -3.780277   -0.019386
