15

C       0.830235   -1.244045   -0.375846
C       0.467944   -0.104386   -0.243746
C       0.041064    1.266115   -0.135851
C      -0.131848    1.868365    1.220756
N       1.005873    2.267787    0.384539
C      -0.807068    1.749359   -1.284930
C      -2.264292    1.580957   -1.277580
O      -1.661933    2.855959   -1.032247
H       1.147852   -2.251988   -0.480843
H      -0.892210    2.633413    1.336895
H       0.040711    1.226986    2.079587
H       1.848083    1.785947    0.691063
H      -0.288054    1.785711   -2.242696
H      -2.803239    1.491306   -2.218752
H      -2.742629    1.119266   -0.415418
