19

C       0.029327    1.452877    0.132388
N      -0.100096    0.014455    0.227198
C      -1.232328   -0.644903   -0.121485
O      -2.256472   -0.104795   -0.509694
C      -1.130120   -2.188627   -0.019523
C      -2.358595   -2.722274    0.720214
C      -1.041951   -2.747017   -1.443363
O       0.080140   -2.587881    0.643320
H       0.792557    1.740241   -0.600032
H      -0.936388    1.846409   -0.188618
H       0.293333    1.893983    1.100034
H       0.684433   -0.562798    0.487482
H      -3.268713   -2.362005    0.238441
H      -2.352673   -3.816013    0.725261
H      -2.373920   -2.366422    1.758024
H      -0.114206   -2.419077   -1.921109
H      -1.049374   -3.840224   -1.418895
H      -1.886409   -2.389429   -2.035938
H      -0.091338   -2.589495    1.591094
