25

C      -0.172368    1.587539   -0.081857
C      -0.038915    0.066031    0.061818
C       0.811412   -0.453488    1.252971
C       2.242327    0.116672    1.185971
C       0.155259   -0.025929    2.582085
C       0.807986   -2.023431    1.187320
C       1.619960   -2.636641    0.028651
C       1.318202   -2.655857    2.469620
O       0.673670   -3.378496    3.186503
H       0.794792    2.072892   -0.243539
H      -0.802047    1.825115   -0.945079
H      -0.636789    2.049399    0.794286
H      -1.043239   -0.368685    0.148786
H       0.379807   -0.324952   -0.872449
H       2.233445    1.198878    1.343580
H       2.887924   -0.311641    1.959151
H       2.712528   -0.071030    0.215702
H      -0.850419   -0.448292    2.681720
H       0.738289   -0.361290    3.445996
H       0.074824    1.062110    2.652308
H      -0.236186   -2.344644    1.098584
H       1.452709   -3.717018   -0.018653
H       1.330638   -2.215523   -0.936925
H       2.694773   -2.473360    0.157104
H       2.386092   -2.434394    2.706333
