14

N      -0.018445    0.771871    1.089985
C       0.025441    0.051224    0.055578
C      -1.238968   -0.265462   -0.723169
N      -1.545980   -1.669519   -0.969576
C      -0.704860   -2.567245   -1.231442
O       0.649127   -2.513167   -1.404639
C       1.218951   -1.230743   -1.572844
O       1.217886   -0.469299   -0.394911
H       0.919403    0.902355    1.475456
H      -2.053486    0.158568   -0.134384
H      -1.235566    0.282298   -1.675567
H      -1.031101   -3.598982   -1.350257
H       2.265584   -1.402524   -1.821452
H       0.714334   -0.704348   -2.390906
