20

C      -0.548098    1.333136    0.141187
C      -0.055464   -0.095123    0.082407
C       1.361034   -0.391456   -0.345880
C       0.947173   -0.635873    1.081956
N       1.465768    0.202646    2.120963
C       2.774667    0.606144    2.262509
C       2.889494    1.298578    3.444295
C       1.603671    1.309973    4.053828
C       0.751995    0.625228    3.220202
H       0.232216    2.007322    0.503147
H      -0.856617    1.673876   -0.852875
H      -1.409008    1.431969    0.810819
H      -0.803548   -0.819307   -0.229086
H       1.566043   -1.253099   -0.970788
H       2.001932    0.463229   -0.533089
H       0.820649   -1.673530    1.381027
H       3.505406    0.354378    1.511335
H       3.792232    1.750905    3.825645
H       1.333287    1.774793    4.989742
H      -0.299057    0.399557    3.304334
