17

C      -0.094657    1.564307    0.117204
C       0.069220    0.055470    0.005511
C       1.146598   -0.517326   -0.989888
C       1.797475   -1.250454    0.178944
N       2.174824   -0.219616    1.183929
C       0.790655   -0.670796    1.157470
C       2.336060   -2.608888    0.235999
O       2.450111   -3.348930   -0.712552
H       0.863437    2.038083    0.347044
H      -0.469033    1.983561   -0.822633
H      -0.806265    1.828247    0.907293
H      -0.894793   -0.426743   -0.179928
H       0.731716   -1.198550   -1.733465
H       1.788842    0.219248   -1.477228
H       2.650211   -0.685659    1.958250
H       0.344345   -1.150898    2.021507
H       2.623849   -2.931563    1.266882
