17

C      -0.088526    1.548582    0.054410
C       0.003239    0.047529   -0.077367
C       0.710644   -0.655644   -1.175322
C       1.758461    0.106318   -2.010317
N       2.800819    0.515943   -1.026534
C       2.435516    0.056494    0.102697
N       1.256923   -0.731513    0.206081
C       2.320358   -0.717048   -3.076567
C       2.758773   -1.411230   -3.953180
H       0.800561    2.063657   -0.314576
H      -0.953065    1.908923   -0.513476
H      -0.237932    1.834179    1.100619
H      -0.860469   -0.475081    0.328533
H       0.307569   -1.575809   -1.583838
H       1.346835    1.021306   -2.457122
H       3.011498    0.221458    1.009001
H       3.157613   -2.017051   -4.728948
