17

N      -0.150688   -1.135993    0.243644
C      -0.098703    0.008930    0.096805
C      -0.012226    1.459784   -0.103614
C       1.408077    1.965920   -0.085024
C       2.142755    2.403961    1.151883
C       1.900523    3.400738    0.043315
C       2.837892    3.165519   -1.178368
N       3.763079    2.049263   -0.861013
C       2.374721    1.770206   -1.298254
H      -0.499220    1.699639   -1.058015
H      -0.597665    1.954795    0.679369
H       1.510584    2.546055    2.023597
H       3.140681    2.040224    1.357305
H       1.314244    4.300384    0.180008
H       3.074086    3.896067   -1.940442
H       4.365258    1.914848   -1.672546
H       2.164520    1.162654   -2.169098
