19

C      -0.911657    1.182279    0.490250
C      -0.180076   -0.062539    0.025626
O       0.550548   -0.582233    1.149609
C       1.279010   -1.696835    0.937191
N       1.337983   -2.260131   -0.194656
C       1.934646   -2.104011    2.270156
N       0.955550   -2.390319    3.334647
C       2.840875   -3.235442    2.093909
C       3.572170   -4.174623    1.931544
H      -0.208093    1.938159    0.850708
H      -1.480375    1.609725   -0.340819
H      -1.609776    0.948749    1.299524
H      -0.866835   -0.833460   -0.339184
H       0.523854    0.150840   -0.785183
H       1.942706   -3.079104   -0.145065
H       2.516956   -1.235552    2.606510
H       0.311369   -1.605217    3.380769
H       0.404428   -3.200852    3.063272
H       4.229640   -4.999144    1.803383
