15

C       0.037095    1.533567   -0.167890
N       0.029042    0.078905   -0.044103
C      -1.119321   -0.498721    0.715941
C      -0.260394   -1.714883    1.185378
N      -0.567966   -1.581631    2.644962
C      -0.547967   -0.166875    2.152122
C       0.661243   -0.466164    1.193846
H       1.034695    1.863153   -0.476424
H      -0.668272    1.831813   -0.950512
H      -0.230255    2.071423    0.757615
H      -2.151658   -0.479220    0.358193
H      -0.095937   -2.663161    0.675003
H      -1.531331   -1.874950    2.828569
H      -0.731414    0.682534    2.810254
H       1.728755   -0.414095    1.408799
