16

O      -0.203892    0.268560   -0.632951
C       0.200272    1.047822    0.199425
C       1.257603    2.000002   -0.017551
C       2.145326    2.805611   -0.165779
C       3.198103    3.788552   -0.368970
N       3.558977    4.464270    0.881017
C       4.563606    5.515338    0.694693
C       4.167485    6.612306   -0.198423
C       3.793600    7.489884   -0.931117
H      -0.232741    1.080600    1.220145
H       4.092992    3.279482   -0.753523
H       2.877874    4.484714   -1.164826
H       2.721510    4.869845    1.287594
H       4.812856    5.918299    1.682506
H       5.480200    5.046614    0.314198
H       3.478665    8.273492   -1.575451
