20

C      -0.293985    1.522606    0.169137
C       0.242447    0.106329   -0.069574
C       0.872378   -0.494600    1.169987
C       0.029942   -1.215354    2.188754
C       0.988315   -1.988139    1.323467
C       0.755933   -3.121251    0.328729
O       1.958435   -3.783640    0.842546
C       2.180294   -2.766178    1.757359
N       3.082525   -2.610810    2.614594
H       0.508324    2.198986    0.482424
H      -0.741481    1.933735   -0.740820
H      -1.056899    1.527410    0.954278
H      -0.573891   -0.541982   -0.414001
H       0.980977    0.125777   -0.881366
H       1.721401    0.056109    1.568660
H       0.282994   -1.126049    3.239441
H      -1.029315   -1.333175    1.978729
H      -0.129213   -3.742949    0.488475
H       0.868387   -2.878656   -0.731590
H       3.747059   -3.385245    2.608284
