16

C      -0.024297    1.505847   -0.036781
C      -0.031872    0.051529   -0.015313
C      -0.035988   -1.153535    0.007358
C      -0.004700   -2.570475    0.057610
C      -0.355820   -3.483450   -1.140982
C      -1.128423   -3.612365    0.126675
N      -0.377186   -4.348298    1.143344
C       0.722906   -3.471372    1.070700
O       1.789950   -3.480113    1.607640
H       0.751188    1.901351    0.628387
H       0.173932    1.891043   -1.043153
H      -0.984951    1.915680    0.294722
H      -0.834054   -2.954911   -1.959923
H       0.335834   -4.266880   -1.437174
H      -2.187083   -3.425627    0.243883
H      -0.271725   -5.357132    1.139747
