14

O      -0.037601   -0.045892   -0.126887
C       0.013984    1.123837    0.165938
C       1.259123    1.965934    0.061080
C       1.212327    3.225973   -0.896657
C       1.517170    4.114063    0.313263
N       0.404529    3.892960    1.264543
C       1.541577    2.939501    1.223985
H      -0.877319    1.669853    0.539321
H       2.109061    1.321656   -0.169275
H       2.014458    3.186950   -1.635041
H       0.261186    3.430317   -1.394340
H       2.092273    5.030880    0.337971
H       0.559616    4.504974    2.064982
H       2.132527    2.741057    2.109289
