17

C      -0.391621    0.976072   -0.508361
N       0.647347    1.487487    0.390572
C       0.439350    0.022948    0.269024
C      -0.104006   -0.661062    1.462395
N      -1.198106   -0.411558    2.067389
C      -1.290577   -1.360194    3.150488
C      -1.366263   -2.820012    2.743310
C      -0.032730   -2.205372    3.053428
O       0.684835   -1.666581    1.953896
H      -1.406063    1.157788   -0.168951
H      -0.237144    1.022045   -1.583160
H       1.474911    1.743230   -0.143263
H       1.195139   -0.552851   -0.255754
H      -1.752291   -1.018189    4.068531
H      -1.750129   -3.514871    3.482299
H      -1.613117   -3.052449    1.712687
H       0.610290   -2.543939    3.855052
