20

C      -0.199912    1.535696   -0.138406
C       0.022270    0.041521   -0.003942
C       1.353571   -0.641820   -0.217061
C       2.609622    0.195505   -0.040559
O       2.461121    0.887654    1.196597
C       1.643936    0.099162    2.068587
C       1.017179    1.008596    3.116284
C       0.703328   -0.667108    1.149617
H       0.650943    2.111861    0.226415
H      -0.366964    1.799401   -1.189123
H      -1.088799    1.849196    0.420581
H      -0.809044   -0.540428   -0.397751
H       1.415408   -1.523960   -0.844594
H       3.494528   -0.461278   -0.021791
H       2.765410    0.952176   -0.817728
H       2.276472   -0.645199    2.585774
H       0.345835    1.739541    2.660113
H       0.444693    0.413336    3.834666
H       1.796277    1.546962    3.663753
H       0.252552   -1.571164    1.544601
