16

C      -0.409914    1.503111    0.043659
C      -0.100675    0.034847   -0.003010
C       0.027780   -0.626781   -1.178977
N       0.435580   -1.922634   -1.416961
C       0.299072   -2.897846   -0.588632
C      -0.377702   -2.859082    0.706021
N      -0.492725   -1.866636    1.506094
C       0.155359   -0.635118    1.293979
N       0.819636   -0.044519    2.206418
H       0.404905    2.039562    0.538807
H      -0.560358    1.913761   -0.957453
H      -1.311082    1.687383    0.639873
H      -0.106297   -0.058399   -2.096954
H       0.633060   -3.880307   -0.928656
H      -0.866804   -3.790407    1.007092
H       0.842840   -0.626892    3.047345
