20

C      -0.224204    1.244412    0.309469
C       0.171249   -0.230225    0.144484
C       0.665449   -0.562070   -1.268804
C       2.026526    0.100337   -1.446142
O       3.015265   -0.254025   -0.855453
C       0.468455   -1.979673   -1.889550
C      -1.012665   -1.573825   -2.041322
N      -0.287035   -0.281319   -2.470256
C       0.627063   -1.257386   -3.244371
H       0.625363    1.913356    0.136168
H      -1.010972    1.518203   -0.398986
H      -0.589528    1.433441    1.322814
H       0.990962   -0.481114    0.827123
H      -0.668672   -0.868870    0.428443
H       2.043421    0.975702   -2.134108
H       0.901308   -2.928020   -1.555717
H      -1.572842   -2.031363   -2.860658
H      -1.642846   -1.469775   -1.159683
H       1.602452   -0.849391   -3.519608
H       0.136137   -1.695490   -4.116406
