19

O      -0.072358    0.103963   -0.180557
C      -0.032762    1.287501    0.036666
C      -1.175670    2.159260    0.547624
C      -0.820689    3.569637    0.059272
C       0.730242    3.631812    0.060715
C       1.364193    4.009643    1.424333
O       1.730485    2.789025    2.054950
C       2.203825    1.946342    1.018137
C       1.213846    2.169184   -0.144873
H      -2.147805    1.780671    0.226633
H      -1.141352    2.106429    1.644519
H      -1.190143    3.709322   -0.962696
H      -1.262859    4.361253    0.670378
H       1.087440    4.309001   -0.717689
H       2.255345    4.637910    1.266495
H       0.683603    4.541727    2.095128
H       3.223563    2.231523    0.712183
H       2.220232    0.917182    1.384574
H       1.669610    1.960069   -1.114821
