21

C       0.108368    1.482943   -0.142287
C      -0.056527   -0.022249    0.075053
C      -1.521429   -0.501222    0.069620
C      -2.141572   -0.559431   -1.362157
O      -1.970670   -1.986296   -1.425892
C      -1.636471   -2.053183   -0.028349
C      -2.322131    0.137676    1.100099
C      -2.990736    0.658726    1.956954
C      -3.803930    1.286034    2.989329
H       1.166111    1.762300   -0.135594
H      -0.310386    1.797431   -1.104530
H      -0.399766    2.048946    0.643598
H       0.476863   -0.576226   -0.707185
H       0.396223   -0.310789    1.031369
H      -3.197533   -0.266266   -1.402569
H      -1.585808   -0.040493   -2.151835
H      -0.711662   -2.613932    0.152212
H      -2.449432   -2.478591    0.572429
H      -4.642970    0.644284    3.280166
H      -3.215847    1.491212    3.890670
H      -4.220821    2.238236    2.642796
