21

C      -0.023470    1.451096    0.300979
C      -0.037722   -0.054078    0.012847
C      -1.469888   -0.593540   -0.091464
C       0.735543   -0.395547   -1.277307
N       2.141546   -0.031565   -1.266098
C       3.051768   -0.774320   -0.411243
C       2.636002    0.938583   -2.088863
O       3.796471    1.286637   -2.157213
H       0.996808    1.836474    0.383429
H      -0.527107    2.006942   -0.499449
H      -0.544164    1.674773    1.237274
H       0.455242   -0.569833    0.847929
H      -2.010151   -0.116452   -0.918079
H      -1.481954   -1.674837   -0.265420
H      -2.030974   -0.396008    0.826867
H       0.649445   -1.473820   -1.474477
H       0.264174    0.120719   -2.122472
H       2.959871   -1.851029   -0.598936
H       4.065339   -0.446710   -0.642698
H       2.851152   -0.590832    0.650276
H       1.837590    1.389729   -2.710331
