18

C       0.003200    1.572446    0.669654
C       0.065702    0.098670    0.324951
C       0.246550   -0.426715   -1.066888
C       0.376227    0.505359   -2.268470
C       1.172882   -0.087888   -3.344627
N       1.802847   -0.563734   -4.188339
N       1.293021   -0.597369   -0.065736
C       2.563594    0.104832   -0.171037
H       0.582355    2.210534   -0.000299
H      -1.035691    1.917875    0.642611
H       0.377382    1.739387    1.685384
H      -0.557669   -0.505708    0.984710
H      -0.250648   -1.359111   -1.332439
H      -0.624227    0.721772   -2.662008
H       0.821201    1.467287   -2.004627
H       2.513369    1.144238   -0.526469
H       3.036523    0.114850    0.815738
H       3.214223   -0.451778   -0.851827
