15

C      -0.011806    1.539617    0.029922
C       0.002310    0.036415    0.022287
C       0.071298   -0.657363   -1.185068
O       0.126326    0.015378   -2.363996
C       0.081295   -2.053547   -1.132470
F       0.148619   -2.687789   -2.318862
N       0.031970   -2.782616   -0.053984
C      -0.034530   -2.120739    1.111551
C      -0.051164   -0.735728    1.188251
H       0.887948    1.942433   -0.447195
H      -0.864570    1.926436   -0.538077
H      -0.068212    1.926736    1.049452
H       0.169103   -0.638012   -3.073164
H      -0.075513   -2.731419    2.007859
H      -0.105819   -0.246922    2.155097
