20

C      -0.170294    1.567121   -0.013337
C       0.056178    0.052049   -0.014434
C       0.942332   -0.443456   -1.194599
N       1.835604   -1.447107   -0.595567
C       2.959791   -1.964915   -1.336195
C       1.788627   -1.325268    0.756938
C       0.809713   -0.490895    1.195121
C       0.481411   -0.270925    2.575229
O      -0.433153    0.425311    2.988360
H       0.784620    2.102534    0.028506
H      -0.699784    1.885397   -0.918308
H      -0.759651    1.852357    0.859786
H      -0.925583   -0.437929   -0.065730
H       0.370778   -0.880254   -2.019685
H       1.544748    0.382497   -1.606199
H       3.658926   -1.169562   -1.639736
H       3.503371   -2.688142   -0.723378
H       2.615353   -2.474730   -2.242424
H       2.479370   -1.898974    1.365261
H       1.151990   -0.803669    3.291107
