15

N       0.269146   -0.888728   -0.629362
C       0.229616    0.171223   -0.171312
C       0.193365    1.518796    0.413524
N       1.483381    2.204400    0.317147
C       1.809916    2.660447   -0.812462
C       3.097591    3.378798   -1.152683
O       2.815868    3.972779   -2.412508
C       1.851047    3.157117   -3.012779
O       1.068318    2.596564   -1.948387
H      -0.612692    2.078778   -0.079390
H      -0.067491    1.423946    1.471645
H       3.348001    4.156765   -0.430649
H       3.929356    2.660845   -1.212931
H       1.204399    3.762142   -3.651850
H       2.298777    2.326705   -3.579867
