15

O       0.054237    1.489722    0.276695
C       0.022421    0.089366    0.050044
C       0.710592   -0.668244    1.170802
C      -0.130025   -1.363304    1.939699
C      -1.521242   -1.229886    1.447143
O      -2.520579   -1.679399    1.942578
C      -1.443464   -0.424609    0.111331
C      -2.483230    0.573558   -0.036191
C      -3.373072    1.370452   -0.156798
H       0.966695    1.786754    0.197343
H       0.472891   -0.148733   -0.924241
H       1.783062   -0.589931    1.321222
H       0.110802   -1.944811    2.820562
H      -1.567633   -1.182897   -0.674418
H      -4.152379    2.084569   -0.255880
