15

C       0.016227    1.577674    0.162425
C       1.432604    2.003872   -0.129078
C       2.216946    0.998969   -0.516071
C       1.472549   -0.306036   -0.547388
O       2.013522   -1.266580    0.412865
C       1.104983   -1.306002    1.413263
N       0.018330   -0.658387    1.323583
C       0.059256    0.034533    0.022092
H      -0.314473    1.868826    1.164706
H      -0.688710    2.029464   -0.546880
H       1.752561    3.036629   -0.038685
H       3.265157    1.072715   -0.779929
H       1.488376   -0.805118   -1.519651
H       1.391422   -1.930617    2.252755
H      -0.763597   -0.332298   -0.597567
