21

C      -0.294085    1.446779   -0.058976
C       0.169681   -0.017219    0.046200
C       0.833365   -0.525424   -1.200516
C       2.109785   -0.910452   -1.311965
C       2.484505   -1.356502   -2.697349
C       1.154505   -1.260006   -3.456555
O       0.953389   -1.625530   -4.585421
C       0.095408   -0.644113   -2.521187
C      -1.198677   -1.472564   -2.506382
H       0.551937    2.111188   -0.260872
H      -1.023854    1.581304   -0.863781
H      -0.765758    1.770905    0.873484
H       0.862528   -0.122017    0.888771
H      -0.700381   -0.645615    0.280449
H       2.819538   -0.902374   -0.491177
H       3.235242   -0.714813   -3.179325
H       2.880030   -2.378533   -2.754865
H      -0.146638    0.351952   -2.922812
H      -1.030639   -2.454163   -2.051512
H      -1.989925   -0.968166   -1.944476
H      -1.544323   -1.626563   -3.531872
