15

N       0.087546    1.318921    0.073793
C      -0.056639   -0.040101    0.013337
C      -1.135238   -0.837727    0.077909
C      -0.706540   -2.226972    0.022029
N      -1.423878   -3.268521    0.055678
O       0.681864   -2.252765   -0.085144
C       1.186368   -0.918447   -0.054903
C       2.029714   -0.622909   -1.211833
C       2.725679   -0.328828   -2.146097
H       0.898979    1.690649   -0.400352
H      -0.746353    1.865946   -0.079462
H      -2.173408   -0.552047    0.148213
H      -0.843784   -4.105149   -0.011777
H       1.782330   -0.792235    0.861469
H       3.343065   -0.093262   -2.978310
