20

C      -0.062562    1.531198   -0.040181
C       1.290819    0.869456   -0.074342
C       0.042211    0.027308    0.058207
C      -0.256152   -0.667276    1.330109
N      -1.621564   -0.702771    1.924647
C      -0.470707   -0.176507    2.707440
C       0.329509   -1.374742    3.294841
C      -0.240708   -2.705980    2.881477
C       0.541217   -1.897224    1.880719
H      -0.328064    2.084544    0.854574
H      -0.456141    1.953894   -0.957599
H       1.829372    0.842927   -1.014953
H       1.919833    0.971548    0.802870
H      -0.247322   -0.526668   -0.832701
H      -2.113322    0.109437    1.550951
H      -0.483259    0.831052    3.104583
H       1.060543   -1.264034    4.084818
H       0.295590   -3.562509    3.278969
H      -1.309150   -2.836436    2.769761
H       1.460276   -2.241638    1.424709
