16

O      -0.137537    1.357430    0.383430
C       0.018424    0.019055    0.013642
C      -0.451335   -0.425635   -1.372217
C      -1.236771   -0.792641   -0.143600
O      -1.315660   -2.107236    0.325551
C      -0.196045   -2.791816    0.702100
N      -0.345889   -4.041788    0.887342
C       1.037359   -2.019217    0.912446
C       1.140190   -0.716722    0.629525
H       0.435972    1.893344   -0.176037
H      -0.884515    0.337411   -2.010540
H       0.125499   -1.194628   -1.873650
H      -2.178357   -0.283294    0.020703
H       0.531586   -4.449845    1.205181
H       1.867872   -2.568397    1.342544
H       2.046375   -0.159129    0.850672
