17

C      -0.162669    1.446061    0.652006
C       0.118274    0.012341    0.265719
C       0.319427   -0.410191   -1.168908
C       0.301080    0.595118   -2.201584
N       0.305918    1.397932   -3.034960
N       1.418793   -0.453255   -0.188803
C       2.545442    0.463160   -0.310343
C       3.766670   -0.281066   -0.841783
O       4.757856    0.270553   -1.236198
H       0.259359    1.662232    1.638967
H       0.243001    2.163463   -0.063832
H      -1.243328    1.606378    0.711451
H      -0.388003   -0.722549    0.890565
H      -0.034629   -1.382922   -1.499312
H       2.373942    1.345093   -0.941087
H       2.803304    0.824422    0.693728
H       3.667924   -1.388758   -0.813204
