15

O      -0.317983    0.180075    0.351764
C      -0.087604    1.298146    0.032370
O      -0.952320    2.204337   -0.550180
C       0.093177    3.218793   -0.662145
C       0.087724    4.178229    0.547756
C       1.074001    3.223759    1.245995
C       2.162054    3.528279    2.175722
O       0.991793    2.805529    2.586379
C       1.099028    2.263848    0.037963
H       0.184187    3.593094   -1.678843
H       0.507723    5.165115    0.337941
H      -0.887497    4.286972    1.025626
H       3.081757    2.945961    2.143911
H       2.256044    4.534280    2.582457
H       2.050882    1.909849   -0.351989
