19

C       0.347247    1.532500    0.061069
C      -0.003867    0.070886   -0.028760
C      -0.057154   -0.534595   -1.225741
C      -0.483192   -1.902806   -1.594214
O      -0.685133   -2.145617   -2.777814
C      -0.659839   -3.007957   -0.619815
C      -0.300451   -3.069123    0.666321
C       0.288981   -1.976937    1.514694
C      -0.318844   -0.585238    1.297663
H       1.247714    1.678535    0.671614
H       0.517558    1.976421   -0.921881
H      -0.455348    2.091534    0.559895
H       0.155467    0.054962   -2.114155
H      -1.064780   -3.895316   -1.098657
H      -0.431527   -4.025849    1.168696
H       0.161667   -2.248132    2.568338
H       1.375357   -1.931367    1.349021
H       0.030290    0.071516    2.101923
H      -1.409898   -0.647944    1.415373
