17

N       0.183154   -1.136173    0.379917
C       0.144580    0.005516    0.206433
C       0.081647    1.448766   -0.023079
O      -0.327439    2.194786    1.137931
C       0.828905    3.073396    1.057855
C       1.802605    2.897705    2.215192
C       2.550270    1.591420    1.854423
N       2.599308    1.535841    0.378539
C       1.430530    2.233829   -0.112146
H      -0.585939    1.638331   -0.873717
H       0.524164    4.106086    0.867281
H       2.493022    3.749461    2.232399
H       1.287542    2.853824    3.178127
H       3.559195    1.537050    2.268398
H       1.995388    0.723793    2.224835
H       3.437175    1.986509    0.031616
H       1.610671    2.704144   -1.077944
