17

N       0.014590    1.323390   -0.176065
C       0.009421    0.080386    0.048119
C      -1.279324   -0.720558    0.045150
N      -1.298119   -1.914066    0.883659
C      -0.071771   -2.677009    0.778119
C       1.171956   -1.794222    1.011157
O       1.173051   -0.636981    0.171520
C      -0.040322   -3.803733    1.791567
O      -0.745102   -3.835846    2.766923
H       0.974907    1.674974   -0.198485
H      -2.099962   -0.056861    0.318796
H      -1.453353   -1.029229   -0.996452
H      -1.482963   -1.701238    1.858221
H       0.001582   -3.112301   -0.230036
H       1.195053   -1.474675    2.062899
H       2.103509   -2.322055    0.787278
H       0.721738   -4.590102    1.598555
