14

C      -0.031261    1.542012    0.022898
C      -0.006175    0.040491    0.000590
C      -0.107819   -0.667417   -1.150585
F      -0.236145   -0.063090   -2.330776
C      -0.088472   -2.121425   -1.221230
O      -0.174303   -2.797554   -2.207658
O       0.046389   -2.748206    0.020574
C       0.148120   -2.054444    1.170034
C       0.128713   -0.711364    1.219830
H       0.891502    1.933480    0.465213
H      -0.138959    1.952597   -0.980852
H      -0.861889    1.901563    0.640280
H       0.245234   -2.708787    2.027172
H       0.214203   -0.204009    2.172011
