16

O       0.105020   -0.013359    0.285745
C       0.088485    1.178355    0.170482
C       1.346870    2.044402   -0.062384
C       1.562452    2.966647    1.192998
C       2.986680    2.590408    1.643117
O       3.171843    1.254695    1.212105
C       2.646974    1.185297   -0.095538
C       1.137681    2.816023   -1.282985
N       0.953016    3.413990   -2.255448
H      -0.849461    1.767545    0.245908
H       1.452826    4.024221    0.950616
H       0.829747    2.718222    1.966833
H       3.724920    3.260002    1.174361
H       3.122249    2.621445    2.726106
H       2.429914    0.142576   -0.328843
H       3.347781    1.598948   -0.834427
