16

O      -0.242363    0.081819   -0.056003
C      -0.054700    1.270674   -0.051491
C       1.320042    1.914958   -0.076754
C       1.472034    2.842001   -1.276735
O       0.523415    3.929820   -1.266266
C       1.556476    4.927561   -1.315456
C       2.672972    3.845220   -1.306361
C       3.570994    3.850040   -0.166426
N       4.274245    3.857716    0.751234
H      -0.899268    1.991409   -0.027798
H       1.445087    2.498899    0.844142
H       2.079827    1.128331   -0.101224
H       1.396698    2.270031   -2.210029
H       1.515598    5.524364   -2.232742
H       1.539371    5.589583   -0.444368
H       3.255668    3.796864   -2.227716
