18

C      -0.171627    1.364248    0.177873
C      -0.114882   -0.108605   -0.099147
N       0.741379   -0.628279   -0.870854
O      -1.111958   -0.747803    0.605742
C      -1.146022   -2.144118    0.560879
C      -2.450287   -2.770414    0.863374
C      -1.898216   -2.858032   -0.562365
C      -2.581039   -2.073361   -1.619841
O      -2.706885   -2.447136   -2.759263
H       0.606817    1.871276   -0.389910
H      -1.151967    1.763591   -0.100390
H      -0.035919    1.554656    1.246978
H       0.630457   -1.636601   -0.968563
H      -0.233958   -2.621646    0.911143
H      -2.478465   -3.680518    1.449796
H      -3.286072   -2.095428    1.015249
H      -1.500533   -3.809221   -0.899151
H      -2.992630   -1.097393   -1.280649
