21

C      -0.128146    1.521262    0.011392
C       0.057646    0.003477    0.043097
C       0.964879   -0.568663   -1.098450
C       2.015470   -1.297709   -0.261599
C       1.218382   -2.001613    0.893433
C       2.308031   -2.332132    1.907713
O       3.073470   -1.109248    1.875870
C       2.351703   -0.339454    0.917952
C       0.839618   -0.522460    1.252583
H       0.833598    2.045329    0.033485
H      -0.653018    1.832540   -0.898104
H      -0.714845    1.867309    0.869316
H      -0.932727   -0.466178    0.010372
H       0.424699   -1.240910   -1.772043
H       1.404109    0.226240   -1.711366
H       2.820986   -1.823357   -0.777801
H       0.454959   -2.754400    0.689623
H       1.926350   -2.511773    2.920480
H       2.939993   -3.179423    1.613661
H       2.832222    0.629767    0.785928
H       0.470875   -0.273126    2.249896
