19

C      -0.121688    1.597331    0.242096
C       0.119988    0.093569    0.091291
C       0.881698   -0.484277    1.283627
N      -1.196719   -0.557341   -0.005354
C      -1.808146   -0.704912   -1.297987
C      -1.346206   -1.921912   -0.536148
C      -0.213589   -2.701159   -1.098941
O      -0.140647   -3.904541   -1.036176
H       0.829576    2.133101    0.314404
H      -0.671309    1.995295   -0.616583
H      -0.707624    1.799763    1.143772
H       0.716086   -0.060827   -0.823308
H       0.305346   -0.347182    2.203658
H       1.070588   -1.555269    1.160193
H       1.847018    0.016958    1.400219
H      -2.874132   -0.506535   -1.370482
H      -1.227952   -0.429114   -2.180075
H      -2.077467   -2.535081   -0.015720
H       0.574581   -2.104769   -1.608310
