16

O      -0.068738    1.499779   -0.102007
C      -0.007778    0.089657   -0.017155
C      -0.025970   -0.607254    1.384973
C      -1.525680   -0.151232    1.524707
O      -1.866087    1.150084    1.843035
C      -1.378760   -0.632386    0.032334
C      -0.607141   -1.853079    0.638836
C       0.268120   -2.633746   -0.217914
N       0.958496   -3.275524   -0.888188
H       0.826191    1.849926   -0.045440
H       0.716545   -0.305003   -0.736763
H       0.757284   -0.623820    2.143061
H      -2.139403   -0.805278    2.151028
H      -1.343546    1.731243    1.271527
H      -2.135248   -0.675158   -0.750550
H      -1.215716   -2.515464    1.258060
