23

C      -0.016725    1.421449   -0.520473
C      -0.077609   -0.108442   -0.522464
C      -1.345418   -0.637904    0.153465
O      -2.503638   -0.103489   -0.514109
C      -3.277029   -1.144968   -1.089125
C      -2.393041   -2.393767   -1.118142
O      -1.529918   -2.437193   -2.248673
C      -1.540169   -2.177419    0.141523
C      -0.281220   -3.036856    0.234963
H       0.884928    1.781553   -1.025396
H      -0.887983    1.839841   -1.030799
H      -0.007048    1.817445    0.501933
H      -0.042201   -0.491268   -1.547009
H       0.795836   -0.512838    0.003925
H      -1.368148   -0.268382    1.189299
H      -4.181432   -1.333392   -0.488051
H      -3.599781   -0.839364   -2.092944
H      -2.990430   -3.314952   -1.055932
H      -2.072947   -2.425345   -3.042603
H      -2.192439   -2.421647    0.989641
H       0.360107   -2.900612   -0.636988
H       0.294806   -2.790548    1.132812
H      -0.545775   -4.097683    0.292759
