18

C       0.000333    1.518740   -0.014685
C       0.041801    0.023164    0.013651
C       0.116786   -0.822721   -1.044325
O       0.134099   -2.119823   -0.631199
C       0.068054   -2.106601    0.733617
C       0.073956   -3.436173    1.400089
C       0.009450   -0.821924    1.187505
C      -0.072110   -0.345548    2.604706
H       0.843423    1.957967    0.532165
H       0.038343    1.895779   -1.040528
H      -0.914591    1.907543    0.448475
H       0.163519   -0.667512   -2.110229
H      -0.776889   -4.049393    1.080978
H       0.985706   -3.998585    1.167179
H       0.017647   -3.318120    2.484231
H       0.780880    0.292521    2.866195
H      -0.977047    0.249081    2.779464
H      -0.086368   -1.179145    3.311857
