24

C      -0.158447    1.517159   -0.120317
C      -0.233744   -0.005023   -0.273306
C       0.705715   -0.590853   -1.346010
C       2.202266   -0.302837   -1.099325
C       2.792211   -0.874108    0.196764
C       0.402928   -2.094734   -1.506157
N       1.128283   -2.738902   -2.590975
C       2.100379   -3.668111   -2.399238
O       2.490777   -4.070657   -1.322067
H       0.819932    1.844602    0.243693
H      -0.342461    2.021285   -1.076021
H      -0.908901    1.873662    0.592086
H      -0.029461   -0.481527    0.693654
H      -1.264408   -0.283858   -0.529277
H       0.444677   -0.106313   -2.300607
H       2.770851   -0.696339   -1.949995
H       2.351891    0.782723   -1.122016
H       3.841951   -0.579317    0.293409
H       2.268863   -0.504032    1.084511
H       2.758266   -1.967047    0.205120
H       0.663453   -2.645388   -0.599606
H      -0.673378   -2.228096   -1.672701
H       0.906045   -2.483743   -3.540403
H       2.510588   -4.035865   -3.361017
