19

C       0.244348    1.557790    0.018607
C       0.091288    0.050031    0.034420
O      -0.873583   -0.427106    1.003085
C       0.512064   -0.724559    1.210065
C       0.918668   -2.185746    1.089898
C       2.080819   -2.407079    0.155126
C       2.053228   -2.072190   -1.142421
C       0.928888   -1.440356   -1.831084
C       0.041321   -0.573393   -1.320148
H       1.189602    1.847976   -0.451403
H      -0.569844    2.018406   -0.551719
H       0.214907    1.955377    1.036211
H       0.963544   -0.174426    2.036846
H       1.134957   -2.595149    2.080829
H       0.039686   -2.717918    0.704914
H       2.966177   -2.895675    0.552623
H       2.906069   -2.331155   -1.766216
H       0.820285   -1.704392   -2.882108
H      -0.738832   -0.183977   -1.972223
