18

O      -0.010469   -0.106727    0.027461
C       0.008788    1.100112    0.009093
C       1.258708    1.913393    0.003424
C       2.715671    1.450108    0.018384
N       2.886474    2.974546   -0.004252
C       1.720090    3.006152   -1.020603
C       0.986755    4.321677   -0.811602
C       0.978465    4.345604    0.740859
C       1.709316    3.037270    0.998125
H      -0.939619    1.688121   -0.005190
H       3.096181    0.980862    0.928741
H       3.105823    0.953026   -0.872916
H       1.987342    2.699987   -2.033707
H       1.545009    5.156250   -1.244237
H      -0.013053    4.318108   -1.254499
H       1.532193    5.193211    1.153509
H      -0.026016    4.355502    1.172953
H       1.965691    2.762524    2.022981
