15

N       0.015166    1.500983   -0.070677
C       0.025932    0.050816   -0.041209
C       0.095966   -0.509980    1.404579
O      -1.309213   -0.819650    1.404407
C      -1.422688   -0.563683   -0.010593
C      -2.525680    0.293174   -0.391517
C      -3.440770    0.987589   -0.744295
C       0.934225   -0.562758   -1.017941
N       1.663850   -1.009040   -1.796610
H       0.963728    1.862963   -0.038260
H      -0.411970    1.833991   -0.930513
H       0.718127   -1.405064    1.517601
H       0.355019    0.240506    2.156023
H      -1.467330   -1.505748   -0.573089
H      -4.255685    1.600841   -1.042636
