21

C      -0.254638    1.545190   -0.009772
C       0.098741    0.052371    0.062786
C       0.712073   -0.473445   -1.205777
C      -0.097986   -1.025520   -2.377175
O       0.026582   -0.632696   -3.709328
C       0.918666   -1.896751   -1.729237
O       2.201358   -1.575480   -2.289615
C       2.163433   -0.254702   -1.649360
C       2.565645    0.890476   -2.558306
H       0.636117    2.157481   -0.184811
H      -0.957133    1.742140   -0.825666
H      -0.712834    1.885363    0.923928
H       0.784995   -0.124436    0.902342
H      -0.806975   -0.524788    0.287524
H      -1.132156   -1.231947   -2.111437
H       0.886680   -0.968748   -3.997650
H       0.788876   -2.884098   -1.298482
H       2.828564   -0.294301   -0.775093
H       1.864880    1.011517   -3.385454
H       2.590847    1.824146   -1.986294
H       3.571004    0.717325   -2.956805
