18

C      -0.779018    0.806609   -0.396005
O       0.236162    0.407347   -1.294957
C       1.345863   -0.217075   -0.685114
C       1.104030   -1.710895   -0.476603
C       0.818593   -2.489935   -1.779198
N       1.569417   -3.702389   -1.516082
C       2.545981   -3.502876   -0.565384
O       3.461777   -4.219770   -0.276988
O       2.298303   -2.304105    0.054292
H      -1.257568   -0.043738    0.111025
H      -0.388299    1.491059    0.371411
H      -1.536801    1.329882   -0.983710
H       2.197685   -0.091234   -1.362359
H       1.601897    0.258066    0.272844
H       0.297484   -1.875530    0.248139
H      -0.247954   -2.683611   -1.916122
H       1.185319   -1.943725   -2.659251
H       1.754806   -4.388348   -2.229177
