23

C       0.016607    1.531943   -0.117379
C       1.441109    2.098766   -0.018988
C       2.251244    1.666537    1.217094
C       1.595246    1.946258    2.541172
C       1.176781    1.017124    3.408120
C       1.248814   -0.436402    3.168627
C       0.566229   -1.110859    2.237608
C      -0.528860   -0.572225    1.348873
C      -0.136769   -0.007156   -0.049775
H      -0.603650    1.980992    0.667789
H      -0.405733    1.884639   -1.065926
H       2.009820    1.808603   -0.912210
H       1.373938    3.194515   -0.046556
H       2.476827    0.598814    1.148393
H       3.215389    2.193455    1.187634
H       1.503935    2.995426    2.821376
H       0.808090    1.338114    4.382557
H       1.926307   -0.995160    3.815523
H       0.764230   -2.177755    2.143368
H      -1.240442   -1.391244    1.192047
H      -1.075856    0.208807    1.887961
H      -0.932279   -0.292349   -0.746512
H       0.770337   -0.501276   -0.418573
