21

C      -0.187357    1.299726   -0.129731
O       0.251294   -0.042699   -0.095683
C       0.713196   -0.488557    1.149661
C      -0.268848   -0.594581    2.357873
C       0.589509   -1.823851    2.763766
C       0.902048   -2.021644    1.254412
O       1.722827   -1.404064    3.512280
C       2.660024   -0.658914    2.740211
C       1.994559    0.212466    1.650224
H       0.633729    2.014259    0.023019
H      -0.614012    1.468623   -1.121247
H      -0.962253    1.494988    0.625933
H      -0.317352    0.227441    3.075644
H      -1.270970   -0.886127    2.031760
H       0.123300   -2.634974    3.323621
H       0.081118   -2.538448    0.753052
H       1.853704   -2.467300    0.958326
H       3.228574   -0.049728    3.448471
H       3.370171   -1.349044    2.263444
H       2.692916    0.345542    0.816479
H       1.747922    1.205341    2.041644
