21

C      -0.140957    1.517587   -0.001269
C      -0.016687    0.019373   -0.021201
C      -0.025172   -0.689510   -1.154721
C       0.072948   -2.169088   -1.179506
C       1.424934   -2.857430   -1.186419
C       0.585152   -2.844285    0.069349
C       0.970120   -1.941880    1.236559
C       0.089258   -0.690271    1.327250
O       0.674219    0.129146    2.338441
H       0.730337    1.982445    0.472818
H      -0.241177    1.919314   -1.012752
H      -1.022541    1.840995    0.571384
H      -0.119197   -0.176573   -2.110779
H      -0.711319   -2.677395   -1.735524
H       1.521473   -3.788102   -1.735810
H       2.308139   -2.227106   -1.203217
H       0.113130   -3.783455    0.339235
H       0.912931   -2.486815    2.183651
H       2.003904   -1.593208    1.139668
H      -0.926461   -0.988867    1.641503
H       0.052227    0.828146    2.559786
