13

O       0.008510   -0.028069    0.044661
C      -0.011451    1.164416    0.064257
C      -1.102257    2.256469   -0.023788
C      -0.782164    3.234408    1.119846
C       0.718056    3.259846    1.098693
C       1.038764    2.292800   -0.053996
C      -0.057156    3.149457   -0.787636
N      -0.060638    4.248714    0.286474
H      -2.128291    2.071274   -0.326184
H      -1.393899    3.507702    1.969800
H       1.343889    3.554120    1.931199
H       2.061553    2.142374   -0.385299
H      -0.076124    3.386150   -1.847368
