18

O       0.235670    1.210205   -0.613564
C       0.022412   -0.099572   -0.147111
C       0.228206   -0.248174    1.376765
N      -1.147974   -0.819206    1.574301
C      -2.149321    0.233191    1.949829
C      -2.465626    0.544008    0.463598
C      -1.438247   -0.563107    0.100411
C      -1.957556   -1.704345   -0.722895
O      -1.595862   -1.936858   -1.850442
H       0.176964    1.199567   -1.574816
H       0.576145   -0.831426   -0.745162
H       1.015668   -0.940851    1.684342
H       0.382118    0.714517    1.874964
H      -2.985050   -0.196147    2.509943
H      -1.727701    1.056257    2.535851
H      -3.492931    0.344412    0.150509
H      -2.162929    1.528271    0.102633
H      -2.724810   -2.331106   -0.213941
