18

C      -0.894626    0.685742   -0.138837
O       0.032522    0.498989   -1.183669
C       1.226199   -0.149302   -0.794464
C       1.065202   -1.656317   -0.590521
C       0.732042   -2.548787   -1.826486
C       1.947342   -3.474185   -1.510761
C       2.371888   -2.460335   -0.436290
O       3.365649   -2.293743    0.210130
H      -1.296409   -0.263227    0.247026
H      -0.450042    1.238609    0.703375
H      -1.723323    1.269796   -0.546388
H       1.938989    0.035041   -1.605803
H       1.640626    0.301563    0.120788
H       0.400217   -1.859650    0.257388
H      -0.246107   -3.030129   -1.812622
H       0.839667   -2.006808   -2.768647
H       1.674850   -4.441114   -1.075042
H       2.676924   -3.651890   -2.305377
