21

C       0.096378    1.290775    0.387536
O      -0.013491   -0.004081   -0.175292
C      -1.303904   -0.517524   -0.142580
C      -1.855450   -1.076697    1.155527
C      -1.513321   -1.990018   -0.005429
O      -2.581563   -2.390723   -0.817403
C      -2.779378   -1.387405   -1.833108
C      -4.224336   -1.438160   -2.293376
C      -2.321631   -0.056103   -1.192344
H       1.151554    1.569495    0.341306
H      -0.490825    2.032211   -0.173255
H      -0.235792    1.305539    1.435058
H      -1.175858   -1.097201    2.001647
H      -2.903642   -0.930269    1.394481
H      -0.687524   -2.689999    0.072981
H      -2.112737   -1.617767   -2.679436
H      -4.899114   -1.209512   -1.462438
H      -4.396120   -0.711119   -3.093400
H      -4.472466   -2.432957   -2.673718
H      -3.168790    0.480795   -0.750954
H      -1.842565    0.600377   -1.923263
