20

C      -0.139614    1.532761    0.205985
C      -0.034987    0.054403    0.017581
C       0.037691   -0.722206   -1.125154
C       0.058510   -0.241248   -2.546903
C       1.473988   -0.150081   -3.120696
O       1.374125    0.292055   -4.466997
C       0.126290   -2.084713   -0.700729
C       0.102940   -2.101864    0.670861
N       0.006463   -0.800330    1.096251
H       0.761052    1.960935    0.664963
H      -0.280053    2.028867   -0.756833
H      -0.990410    1.806520    0.842810
H      -0.522091   -0.916040   -3.186679
H      -0.408504    0.745856   -2.636986
H       2.071442    0.546858   -2.511287
H       1.960013   -1.136278   -3.055676
H       2.261123    0.334193   -4.835441
H       0.189474   -2.949506   -1.344662
H       0.137653   -2.917232    1.375319
H      -0.048176   -0.509353    2.056724
