17

C       0.318244    1.462006   -0.154957
C      -0.064662    0.001601    0.139353
C       0.577453   -0.537464    1.370789
N       0.018916   -0.938346    2.468208
C       1.080843   -1.325773    3.279067
C       2.250636   -1.136191    2.623706
C       3.683468   -1.351441    2.942363
O       1.937710   -0.626029    1.386966
H       1.399504    1.564006   -0.282063
H      -0.167325    1.807087   -1.072222
H       0.009130    2.118976    0.663349
H      -1.144113   -0.094759    0.277902
H       0.212620   -0.627097   -0.715959
H       0.924600   -1.712442    4.273940
H       4.150919   -2.055064    2.244218
H       4.252366   -0.415916    2.895701
H       3.778421   -1.758433    3.951656
