18

C      -0.598524    0.812569    0.101795
O       0.021228   -0.451478   -0.078288
C       0.882432   -0.515156   -1.206437
C       1.688610   -1.818968   -1.189522
N       1.046489   -2.807307   -2.099257
C      -0.360204   -3.016853   -1.798879
C       0.038957   -2.074515   -2.898235
C       0.050029   -0.632175   -2.514299
O      -0.462234    0.285256   -3.107229
H       0.155302    1.603010    0.233807
H      -1.239983    1.082304   -0.744926
H      -1.202413    0.738357    1.008843
H       1.520505    0.377956   -1.249764
H       2.697674   -1.640017   -1.572087
H       1.765147   -2.229791   -0.180119
H      -0.754209   -3.986286   -2.089589
H      -0.771569   -2.593034   -0.887462
H      -0.102629   -2.341753   -3.939320
