23

C       0.192181    1.522798   -0.437918
C       0.061327    0.057959   -0.090473
O      -1.219532   -0.468452   -0.353072
C       1.229418   -0.885258   -0.247295
C       0.694592   -0.543374    1.136224
C       1.477424    0.233655    2.174195
C       2.902421    0.633297    1.834123
C       0.686194    1.162119    3.074916
C       1.219174   -0.138548    3.619294
H       1.180295    1.917087   -0.191391
H       0.032839    1.677332   -1.512711
H      -0.556623    2.112264    0.100203
H      -1.342013   -0.476624   -1.309318
H       1.026266   -1.879704   -0.629465
H       2.185541   -0.469244   -0.547222
H       0.069278   -1.326026    1.556621
H       2.958339    1.295417    0.962777
H       3.360332    1.166523    2.673049
H       3.518985   -0.246690    1.620266
H       1.154579    2.085945    3.398925
H      -0.382059    1.239666    2.903846
H       0.510610   -0.934929    3.822096
H       2.053922   -0.101957    4.311630
