17

C      -0.052186    1.495382    0.008456
C       0.096005   -0.006274    0.001252
N       1.245411   -0.538245   -0.010488
N      -1.129662   -0.733801    0.008823
C      -2.423067   -0.188470    0.021775
N      -3.397236   -1.008596    0.027055
C      -2.793991   -2.342043    0.017038
C      -1.281495   -2.133351    0.004916
N      -0.312397   -2.955649   -0.006521
H       0.949738    1.922027    0.001995
H      -0.597547    1.855404   -0.870892
H      -0.583199    1.848375    0.899355
H       1.180841   -1.558908   -0.013819
H      -2.542940    0.886788    0.026738
H      -3.107679   -2.912011    0.899233
H      -3.122714   -2.905590   -0.863801
H      -0.652437   -3.916278   -0.007225
