21

C      -0.038112    1.520822    0.043961
C       0.040381    0.011190    0.052790
C       0.907370   -0.794979   -0.982243
C       0.741438   -1.917329    0.110485
O       1.517759   -3.072187    0.167299
C       0.839983   -0.762695    1.143765
C      -0.763924   -2.202501   -0.013323
C      -1.718619   -1.717882    1.048521
C      -1.286566   -0.781825   -0.055012
H       0.957989    1.974340    0.079709
H      -0.538052    1.884527   -0.861349
H      -0.606464    1.890072    0.905067
H       0.477492   -0.981402   -1.970529
H       1.933521   -0.420951   -1.070512
H       2.443136   -2.811775    0.214719
H       1.863258   -0.381977    1.215047
H       0.430213   -0.883794    2.147158
H      -1.067667   -2.968804   -0.716958
H      -2.733174   -2.095010    0.959624
H      -1.406911   -1.577298    2.076333
H      -2.012488   -0.452855   -0.791358
