17

C       0.780548    1.327137   -0.451254
C       0.009729    0.171331    0.192075
O      -0.266306   -0.830371   -0.812452
C       0.670557   -1.793856   -0.983208
N       1.663517   -2.096804   -0.263032
C       1.869921   -1.387232    0.995388
C       0.752071   -0.444282    1.349731
N       0.355458   -0.122261    2.517876
O       1.147318   -0.699665    3.519325
H       1.767897    1.002244   -0.792655
H       0.226026    1.709696   -1.312213
H       0.911005    2.134797    0.274120
H      -0.966823    0.517506    0.535844
H       0.459172   -2.353138   -1.892974
H       1.992257   -2.121383    1.796856
H       2.825639   -0.846019    0.945333
H       0.696587   -0.420750    4.323503
