20

C       0.022134    1.514902   -0.206454
C      -0.006740    0.016543    0.086147
O       0.733399   -0.293090    1.278991
C      -1.422437   -0.529373    0.153328
C      -1.982240   -1.342490   -0.993136
C      -1.639456   -2.012934    0.311657
N      -0.473165   -2.837697    0.412847
C      -0.465133   -4.143857    0.034874
O      -1.392119   -4.724510   -0.487765
H       1.052957    1.875476   -0.250026
H      -0.469489    1.733629   -1.159448
H      -0.504840    2.073656    0.576777
H       0.541214   -0.513627   -0.699343
H       0.280942    0.121035    2.022555
H      -2.122837    0.108804    0.688404
H      -3.029656   -1.237328   -1.250379
H      -1.324853   -1.536351   -1.833422
H      -2.477845   -2.334859    0.924160
H       0.307942   -2.456740    0.929877
H       0.507995   -4.627621    0.257345
