17

O       0.128182    1.415269   -0.072843
C       0.080920    0.031738    0.022873
C       0.243779   -0.678141    1.443803
O       0.729670   -0.307823    2.467504
C      -0.656934   -1.849879    0.946288
C      -2.215285   -2.059646    0.951428
C      -2.358842   -0.522131    1.019520
C      -1.229404   -0.792247   -0.032690
C      -2.152420   -1.913951   -0.622734
H      -0.291655    1.787974    0.710667
H       0.821311   -0.378269   -0.674124
H      -0.059580   -2.647024    0.491137
H      -2.786342   -2.808063    1.504475
H      -3.282042   -0.090666    0.626222
H      -2.071498   -0.051262    1.963463
H      -1.653737   -2.717065   -1.170233
H      -3.075105   -1.596855   -1.115652
