17

O      -0.033474    1.426639    0.432271
C       0.063168    0.079217    0.118920
C      -0.409364   -0.975445    1.077439
C      -1.211610   -0.690852   -0.192516
N      -2.374284    0.094179   -0.024751
C      -3.416195   -0.147296   -0.694517
N      -4.572835    0.631650   -0.627898
C      -4.752970    1.850374    0.004321
O      -3.932473    2.458726    0.639559
H      -0.979229    1.623316    0.520762
H       0.939284   -0.134788   -0.485952
H       0.120370   -1.920687    1.127915
H      -0.851376   -0.636598    2.007360
H      -1.207377   -1.440823   -0.985698
H      -3.521568   -0.987132   -1.393808
H      -5.362595    0.291681   -1.154709
H      -5.788361    2.212353   -0.158386
