19

C      -0.108167    1.520028    0.014819
C      -0.011368    0.028389   -0.035492
C      -0.098850   -0.748299   -1.121362
C       0.048943   -2.212247   -0.817017
O      -0.955401   -3.038445   -1.351012
C       1.460996   -2.805669   -0.980975
O       1.766048   -2.542247    0.405000
C       0.389218   -2.214178    0.708301
C       0.220502   -0.785493    1.227096
H       0.821213    1.959778    0.397846
H      -0.308355    1.949510   -0.970203
H      -0.905271    1.838250    0.698889
H      -0.250790   -0.389083   -2.134731
H      -1.791008   -2.562768   -1.292595
H       1.436415   -3.880481   -1.202986
H       2.151650   -2.297982   -1.662862
H      -0.086863   -2.989678    1.317961
H       1.127394   -0.471697    1.757953
H      -0.614238   -0.678161    1.933565
