24

C       1.641681    0.584400   -1.633761
C       0.781735   -0.282019   -0.737547
N       1.236960   -0.830636    0.545233
C       2.566097   -0.527777    1.052093
C       0.164203    0.178429    0.552267
C       0.406720    1.587829    1.067464
C      -1.188739   -0.405259    0.944463
C      -1.333819   -0.662501    2.447679
O      -2.575433   -1.267105    2.779551
H       2.209852    1.345838   -1.097787
H       2.356903   -0.033047   -2.188821
H       1.012331    1.096970   -2.369328
H       0.201859   -1.008385   -1.310168
H       2.938811    0.487447    0.857643
H       2.573022   -0.682156    2.136176
H       3.278798   -1.233935    0.612931
H       1.334213    2.029709    0.702313
H      -0.414016    2.243438    0.756638
H       0.443523    1.608363    2.161994
H      -1.999344    0.255575    0.612316
H      -1.314553   -1.361261    0.421312
H      -0.483818   -1.270899    2.792594
H      -1.313901    0.277406    3.008677
H      -2.604468   -2.125540    2.345014
