21

C      -0.080788    1.538904   -0.012098
C      -0.025662    0.035005    0.010086
C      -0.066277   -0.686411   -1.113174
C       0.001756   -2.199262   -1.173248
C       1.348599   -2.701224   -0.647919
O       2.224928   -3.063173   -1.398065
C       1.522372   -2.734073    0.865630
C       1.427731   -1.371722    1.584431
C       0.100995   -0.614304    1.377478
H       0.809667    1.973858    0.460824
H      -0.150475    1.929944   -1.030446
H      -0.943615    1.909420    0.556770
H      -0.122531   -0.173861   -2.069501
H      -0.806875   -2.643266   -0.576706
H      -0.101745   -2.545896   -2.202768
H       0.741309   -3.394000    1.270411
H       2.490448   -3.198662    1.070800
H       1.569616   -1.556576    2.655708
H       2.259967   -0.733489    1.265400
H       0.015953    0.157663    2.149145
H      -0.737505   -1.305783    1.547290
