21

C       0.016960    1.488162   -0.067034
C       0.054174   -0.028578   -0.075419
C       0.834793   -0.781523   -1.188623
C       1.310320   -1.725427   -0.056563
N       0.946453   -0.676670    0.909679
C       0.404913   -1.070834    2.189870
N       0.108233   -1.333719   -2.299939
C       0.413533   -1.079699   -3.604086
O       1.318862   -0.372412   -3.989306
H       1.030294    1.895091   -0.126089
H      -0.561911    1.862875   -0.917997
H      -0.451245    1.867354    0.847935
H      -0.974939   -0.435213   -0.017343
H       1.643846   -0.180591   -1.602902
H       0.668148   -2.623091    0.010535
H       2.358945   -2.039253   -0.041766
H       1.172028   -1.587186    2.776623
H       0.096007   -0.184207    2.753383
H      -0.470265   -1.744191    2.103151
H      -0.674526   -1.940291   -2.109843
H      -0.276598   -1.607129   -4.292596
