21

C       0.042942    1.545664   -0.036561
C       0.083068    0.042773    0.000320
C       0.058460   -0.710078   -1.104199
C      -0.011121   -2.221013   -1.127457
O      -1.325518   -2.734934   -0.921750
C      -1.787891   -2.774488    0.416721
C      -2.216323   -1.424721    1.023467
O      -1.283434   -0.766747    1.870483
C       0.041107   -0.592151    1.371529
H       0.927934    1.976436    0.449210
H      -0.007715    1.929025   -1.058990
H      -0.827930    1.918517    0.516740
H       0.017520   -0.216706   -2.073495
H       0.282876   -2.586986   -2.115239
H       0.680133   -2.666861   -0.396884
H      -2.674003   -3.416778    0.374673
H      -1.057649   -3.267811    1.078557
H      -2.541457   -0.776504    0.197795
H      -3.079338   -1.593278    1.676118
H       0.575092   -1.551467    1.369744
H       0.530385    0.050006    2.110660
