16

C      -0.192642    1.638103    0.362821
N      -0.042301    0.196722    0.266879
C      -1.050313   -0.534739    0.069410
O      -2.354081   -0.103672   -0.074635
C      -3.209655   -1.229588   -0.282983
C      -2.302743   -2.419428   -0.254786
C      -1.046803   -2.003846   -0.048894
C       0.171233   -2.837074    0.050834
O       0.161671   -4.042617   -0.047897
H       0.430054    2.113162   -0.403992
H      -1.222555    1.993638    0.251137
H       0.193354    1.972854    1.332545
H      -3.972014   -1.259569    0.507737
H      -3.731902   -1.117988   -1.243255
H      -2.628567   -3.442923   -0.382221
H       1.102209   -2.265260    0.224733
