18

C      -0.163863    1.583966    0.027750
C       0.035737    0.060955    0.003123
C       0.839979   -0.446215   -1.180286
C       1.825091   -1.271686   -0.827793
C       1.910128   -1.413673    0.662590
C       2.242780   -0.117679    1.403343
C       0.805594   -0.496678    1.206148
C       2.240882   -2.675657    1.257333
N       2.515332   -3.695143    1.731429
H       0.794344    2.110527    0.069712
H      -0.693535    1.920173   -0.869236
H      -0.755063    1.885172    0.897915
H      -0.960992   -0.403232   -0.020544
H       0.623283   -0.136646   -2.196744
H       2.518730   -1.771417   -1.492289
H       2.640266   -0.215411    2.407381
H       2.683774    0.671613    0.805101
H       0.249572   -0.801755    2.084119
