16

O      -0.357074    1.261419    0.684622
N      -0.138108   -0.119394    0.524958
C      -1.098667   -0.658459   -0.097376
C      -2.427998   -0.197807   -0.651828
C      -2.805297   -1.702896   -0.864920
O      -3.150599   -1.939363   -2.215380
C      -1.327629   -2.106910   -0.461554
C      -3.816861   -2.215733    0.050498
C      -4.650200   -2.675137    0.785615
H       0.423080    1.534685    1.179067
H      -3.064169    0.381207    0.019381
H      -2.348113    0.318832   -1.612932
H      -3.474295   -2.844217   -2.287160
H      -0.769722   -2.429445   -1.346052
H      -1.216439   -2.843278    0.336564
H      -5.389860   -3.067105    1.439560
