26

C      -0.001545    1.637608   -0.003013
C      -0.057419    0.107113    0.023344
C       0.826744   -0.499912    1.120906
C       0.793390   -2.041741    1.208747
C       1.537473   -2.655261    0.010600
C       1.344790   -2.549286    2.570432
C       0.429033   -2.163007    3.744216
C       1.569643   -4.070089    2.598867
H       1.017982    1.993157   -0.190084
H      -0.645842    2.048577   -0.786742
H      -0.327454    2.062936    0.952955
H      -1.094943   -0.217735    0.178926
H       0.236068   -0.278256   -0.960276
H       1.867569   -0.178457    0.968349
H       0.517666   -0.062946    2.076771
H      -0.259478   -2.360284    1.149645
H       1.392963   -3.736250   -0.055462
H       1.190761   -2.225805   -0.933468
H       2.615587   -2.464674    0.082260
H       2.321354   -2.065855    2.727048
H      -0.554013   -2.638330    3.638983
H       0.856475   -2.500521    4.694181
H       0.268758   -1.085012    3.824756
H       2.330785   -4.393746    1.885089
H       1.895335   -4.389323    3.594440
H       0.642054   -4.609192    2.369004
