17

C      -0.152491    1.514678   -0.085199
C       1.408821    1.735683    0.076083
C       2.145594    1.789494    1.451157
C       3.095695    0.511713    1.436693
C       2.200191   -0.464584    0.706982
C       1.237900   -1.395242    1.066771
N      -0.018830   -1.059423    0.545925
C       0.219675    0.013974   -0.177065
N       1.560133    0.301696   -0.248964
H      -0.758595    1.734478    0.794807
H      -0.586741    1.992917   -0.964732
H       1.853581    2.410050   -0.660522
H       2.693500    2.723888    1.600558
H       1.431427    1.684437    2.273508
H       4.024026    0.734330    0.899726
H       3.356467    0.185384    2.444468
H       1.341415   -2.257139    1.710513
