18

C      -0.013620    1.483218   -0.130762
C       1.360276    2.111043   -0.025147
C       2.160217    2.012571    1.040174
C       1.845003    1.336362    2.325042
O       0.474982    1.304561    2.761227
C       1.080975    0.064524    2.435339
C       0.589089   -0.683363    1.235253
N      -0.859950   -0.685375    0.953669
C       0.060217   -0.029880    0.009272
H      -0.662594    1.867224    0.658832
H      -0.473713    1.737789   -1.090548
H       1.726078    2.664607   -0.886276
H       3.140051    2.482365    1.007805
H       2.544509    1.552469    3.133064
H       1.292204   -0.565215    3.302449
H       1.127379   -1.619311    1.088000
H      -1.144115   -1.596664    0.604308
H       0.276866   -0.557613   -0.918291
