25

C      -0.058184    1.581247    0.169382
C      -0.021749    0.056403    0.030985
C       0.656089   -0.442580   -1.256511
C       0.801918   -1.986967   -1.314901
C       0.588766   -2.410209   -2.799710
C       1.934718   -2.592290   -3.533195
C      -0.239902   -3.698804   -2.923136
C      -0.142234   -1.198972   -3.352041
C      -0.095906   -0.147452   -2.538130
H       0.952814    2.003875    0.151854
H      -0.625216    2.048860   -0.642238
H      -0.526775    1.881280    1.111954
H       0.510600   -0.370194    0.891231
H      -1.042560   -0.345893    0.072095
H       1.648581    0.033763   -1.307120
H       1.760164   -2.334770   -0.916748
H       0.015669   -2.436750   -0.696889
H       2.479852   -3.457528   -3.138470
H       1.781016   -2.756110   -4.605687
H       2.569743   -1.708038   -3.419485
H      -1.218597   -3.585617   -2.445833
H      -0.406254   -3.964179   -3.973536
H       0.273558   -4.541990   -2.446869
H      -0.602156   -1.212162   -4.336049
H      -0.512858    0.829151   -2.760946
