18

O      -0.078719    1.411536    0.230536
C      -0.063174    0.021487   -0.069172
C      -1.468122   -0.484725   -0.016757
N      -2.551196   -0.157516   -0.996412
C      -3.030398    1.224871   -0.978240
C      -3.235976   -1.078101   -0.042799
C      -1.964412   -1.957106    0.103844
O      -1.972625   -1.969159    1.557834
C      -2.428629   -0.624383    1.228801
H       0.820583    1.744193    0.155841
H       0.352086   -0.172675   -1.069932
H       0.529502   -0.547356    0.664404
H      -2.299115    1.866055   -1.475595
H      -3.972543    1.280489   -1.533536
H      -3.198585    1.629668    0.033204
H      -4.279647   -1.381066   -0.132769
H      -1.655832   -2.847869   -0.441283
H      -2.661172    0.051123    2.050527
