16

N      -0.133987    1.270514    0.134104
C      -0.029462    0.025153   -0.045210
O      -1.092751   -0.774467   -0.273021
C      -0.688632   -2.125562   -0.537128
C      -1.722843   -3.162991   -0.254986
C      -1.378975   -2.790091   -1.688294
C       0.793098   -2.261313   -0.233416
C       1.232681   -0.820274   -0.029744
O       2.340504   -0.383614    0.129807
H       0.804666    1.642403    0.297935
H      -1.393733   -4.122535    0.129381
H      -2.671653   -2.812818    0.134947
H      -2.103119   -2.195717   -2.233220
H      -0.813254   -3.493877   -2.289574
H       0.983370   -2.820147    0.690237
H       1.367683   -2.734726   -1.033122
