17

O      -0.363057   -0.490053    0.579780
C      -0.179651    0.487548   -0.109468
C       1.147041    0.732388   -0.826165
C       2.239237    1.053794    0.173167
C       3.348456    1.954086   -0.158734
O       2.269654    2.396739    0.671694
C      -1.260249    1.523095   -0.248555
C      -0.939603    2.957599   -0.077959
O      -1.201702    2.412449   -1.365365
H       1.405547   -0.196907   -1.345654
H       1.052210    1.534188   -1.560983
H       2.393544    0.294900    0.939610
H       4.307158    1.844681    0.345206
H       3.390660    2.406270   -1.148438
H      -2.251224    1.167956    0.027203
H      -1.713914    3.608839    0.323149
H       0.090425    3.253758    0.110073
