16

N       0.095525    1.098279   -1.112839
C       0.062160    0.058363   -0.378694
N       1.072115   -0.555839    0.319945
C       0.737474   -1.572204    1.307110
C      -0.143569   -2.640188    0.647465
O      -1.091507   -2.098483   -0.278651
C      -1.264450   -0.699424   -0.256798
C      -2.008486   -0.254718    0.945993
N      -2.576518    0.060674    1.901740
H       1.019136    1.536665   -1.110631
H       1.937994   -0.049753    0.424936
H       1.657848   -2.041123    1.663528
H       0.229032   -1.140242    2.179290
H       0.475129   -3.332734    0.067703
H      -0.674135   -3.208578    1.421068
H      -1.858083   -0.442422   -1.135956
