22

C      -0.103967    1.560937   -0.208838
C      -0.061267    0.072332    0.032153
N       1.219309   -0.622471   -0.130630
C       0.602987   -0.577246    1.211600
C       1.327415    0.144789    2.285591
C       0.972220    0.168464    3.574310
C       1.956742    0.917715    4.437980
C       2.844482    1.644781    3.395662
C       2.646729    0.865335    2.073733
H       0.795946    2.053766    0.161978
H      -0.188895    1.775100   -1.279875
H      -0.970164    2.005367    0.293252
H      -0.947605   -0.454914   -0.322509
H       1.088649   -1.536232   -0.554750
H       0.100604   -1.481187    1.554530
H       0.101334   -0.334870    3.982923
H       1.476353    1.611658    5.137702
H       2.539805    0.218830    5.056209
H       2.483779    2.670828    3.268329
H       3.892781    1.707542    3.698790
H       3.441907    0.125807    1.904768
H       2.658480    1.511086    1.191708
