17

C      -0.321234    1.608063   -0.165517
C       0.065655    0.128529    0.012354
C       0.850011   -0.436415   -1.113649
C       2.098043   -0.943360   -1.288252
N       3.123161   -1.161450   -0.369925
N       2.275339   -1.346520   -2.613778
C       1.136270   -1.063774   -3.158994
O       0.768246   -1.247093   -4.426241
O       0.216198   -0.521316   -2.370137
H       0.568956    2.238738   -0.252552
H      -0.916668    1.743737   -1.072865
H      -0.912743    1.961759    0.684825
H       0.661330    0.004245    0.924411
H      -0.846580   -0.463980    0.169710
H       3.151577   -0.483802    0.379348
H       4.020854   -1.216424   -0.832730
H       1.521530   -1.650647   -4.875622
