16

C       0.046611    1.379407   -0.319003
C       0.036023   -0.119075   -0.386109
N       0.959072   -0.791170   -0.923342
O      -1.117688   -0.594008    0.211062
C      -1.178490   -1.959439    0.527032
C      -2.529654   -2.393683    1.112497
O      -2.699883   -3.362077    0.025095
C      -1.543816   -2.965748   -0.591055
O      -1.079443   -3.349664   -1.614574
H       0.935826    1.758507   -0.819928
H      -0.848956    1.782013   -0.802598
H       0.032669    1.717046    0.721950
H       0.778359   -1.793649   -0.959718
H      -0.297467   -2.275152    1.098361
H      -2.512480   -2.895974    2.080211
H      -3.298211   -1.620756    1.074386
