17

O      -0.100453    0.068803    0.528186
C      -0.049389    1.209676    0.123451
N      -1.180165    1.907006   -0.274937
C      -1.319120    3.331615   -0.133011
C      -1.043536    3.958845    1.217919
C      -0.049710    4.109360    0.085700
C       1.234391    3.341247   -0.038243
C       1.856185    2.521207    1.046557
N       1.170623    1.884259   -0.074850
H      -2.012021    1.368233   -0.071741
H      -2.093205    3.752988   -0.765315
H      -1.593407    4.845122    1.515456
H      -0.818002    3.275734    2.030011
H      -0.010398    5.091601   -0.371603
H       1.905500    3.750761   -0.790521
H       2.933166    2.383034    1.074978
H       1.367112    2.497541    2.016722
