20

C      -0.027389    1.558402   -0.179778
C       1.382766    2.120282    0.045552
O       2.034032    1.493997    1.150606
C       1.567018    1.815663    2.393361
N       1.174768    0.983197    3.252780
C       1.055975   -0.425680    2.828274
C      -0.359280   -0.684197    2.354707
C      -0.829561   -0.498728    1.119186
C      -0.081929    0.000475   -0.096299
H      -0.711021    1.986983    0.560605
H      -0.370201    1.911014   -1.159322
H       2.026317    1.909076   -0.813326
H       1.350564    3.210935    0.187795
H       1.590774    2.885487    2.622393
H       1.779828   -0.680937    2.048545
H       1.267304   -1.046704    3.703154
H      -1.060650   -0.994843    3.125434
H      -1.892171   -0.678767    0.961368
H      -0.572597   -0.390660   -0.992623
H       0.939238   -0.391963   -0.103798
