16

C       0.025843    1.513478   -0.015864
N       1.379304    2.083118   -0.011992
C       2.382259    1.332777    0.209978
N       2.387511   -0.029081    0.467413
C       1.195426   -0.722354    0.244336
C       0.911691   -2.066805    0.202757
N      -0.435291   -2.169553   -0.080989
C      -0.989727   -0.921274   -0.209656
C       0.004024    0.008403   -0.010243
H      -0.505354    1.922748    0.857717
H      -0.504258    1.917570   -0.888793
H       3.377789    1.778118    0.227853
H       3.265860   -0.516524    0.403166
H       1.530566   -2.938687    0.333687
H      -0.937896   -3.034820   -0.158482
H      -2.038988   -0.800178   -0.427072
