16

N      -0.088786    1.266714   -0.252289
C      -0.046106    0.039130    0.045206
O       1.115544   -0.602746    0.366887
C       1.058407   -1.982920    0.778746
C      -0.335792   -2.564103    0.609918
C      -0.932821   -2.142274   -0.752727
C      -1.266662   -0.841456    0.024206
N      -1.258090   -1.612725    1.327684
H       0.845979    1.677225   -0.191783
H       1.792016   -2.527091    0.173717
H       1.356693   -2.028021    1.831509
H      -0.364657   -3.609285    0.927523
H      -0.282219   -2.086050   -1.630721
H      -1.837093   -2.706701   -0.992335
H      -2.155271   -0.256972   -0.204953
H      -2.168177   -2.064018    1.411302
