16

O       0.081276    1.493785    0.203916
C       0.051303    0.102938    0.064976
C       0.089132   -0.684580    1.401447
N      -1.078559   -0.177475    2.144707
C      -2.047117   -0.018137    1.143979
O      -3.124868    0.507883    1.233286
C      -1.338567   -0.647907   -0.063331
C      -0.615719   -1.846188    0.624322
O       0.165188   -2.569016   -0.292704
H      -0.037367    1.896126   -0.662104
H       0.775879   -0.269074   -0.663265
H       0.986424   -0.816567    2.004442
H      -0.969626    0.569472    2.816313
H      -1.905205   -0.745675   -0.985441
H      -1.239999   -2.493576    1.250250
H       0.667596   -3.229113    0.196058
