17

C      -0.019339    1.453978    0.045709
C      -0.001029   -0.039122   -0.018201
C      -0.037196   -0.822866   -1.118253
C       0.001439   -2.223123   -0.699201
C       0.061234   -2.268805    0.668742
C       0.066638   -0.896913    1.258442
N       0.094614   -3.598900    0.990540
C       0.052616   -4.282110   -0.207149
N      -0.004037   -3.478996   -1.250942
H       0.879555    1.853679    0.533765
H      -0.074655    1.887437   -0.956669
H      -0.877179    1.828385    0.619983
H      -0.086685   -0.470474   -2.140857
H       0.969344   -0.667280    1.840284
H      -0.788987   -0.692922    1.916046
H       0.140018   -4.016264    1.904903
H       0.066916   -5.361406   -0.239435
