17

C      -1.148798   -0.160512   -0.306089
C       0.308329    0.294067   -0.284403
O       1.110743   -0.321586   -1.283961
C       1.482016   -1.646144   -1.015189
C       2.372104   -2.120501   -2.174465
O       2.925584   -3.396086   -1.922545
C       1.631603   -2.094968   -3.451839
N       1.040709   -2.135705   -4.443783
H      -1.580410   -0.007327   -1.299156
H      -1.256169   -1.216957   -0.042428
H      -1.729232    0.420192    0.418080
H       0.368725    1.366519   -0.492770
H       0.753311    0.123754    0.708803
H       2.069809   -1.727770   -0.087524
H       0.613484   -2.318251   -0.927413
H       3.217497   -1.430274   -2.257986
H       2.220607   -4.051495   -1.977566
