21

C      -0.311938    1.490908   -0.017681
C       0.096710    0.012666    0.055964
C       0.770380   -0.476924   -1.197677
C       0.032277   -0.999078   -2.380323
C       0.975945   -1.952802   -1.649895
C       2.383802   -1.615955   -2.025337
O       3.337051   -2.262102   -2.362009
C       2.222791   -0.125766   -1.610505
C       2.528536    0.988702   -2.604446
H       0.559476    2.136220   -0.168628
H      -1.004168    1.667035   -0.847317
H      -0.804230    1.806955    0.906930
H       0.768390   -0.139025    0.910962
H      -0.791365   -0.602241    0.248228
H      -1.017785   -1.227480   -2.221913
H       0.259932   -0.674883   -3.391231
H       0.615070   -2.879314   -1.219309
H       2.837751    0.003071   -0.709111
H       1.888754    0.935040   -3.490317
H       2.392812    1.976663   -2.152843
H       3.567479    0.912397   -2.940473
