21

C       0.015851    1.382191   -0.313171
C       0.236145   -0.086570   -0.022769
C       1.622625   -0.674335    0.089875
C       0.732645   -0.604317    1.312775
C       1.064356    0.361250    2.435825
C       0.119429   -1.932856    1.803060
O      -0.469339   -2.678612    0.773396
C       1.187830   -2.779002    2.475403
O       1.448230   -3.892585    2.084086
H       0.804626    2.015612    0.102312
H       0.002628    1.553250   -1.395184
H      -0.941881    1.733132    0.087492
H      -0.483033   -0.745099   -0.497520
H       1.796747   -1.647527   -0.357021
H       2.471730    0.001240    0.047833
H       1.465980    1.299830    2.049163
H       0.172598    0.601916    3.027638
H       1.815850   -0.043757    3.122713
H      -0.635167   -1.689438    2.574023
H      -0.008006   -3.533383    0.776430
H       1.726097   -2.329671    3.331267
