16

C       0.242632    1.590049    0.166137
C       0.070972    0.065519    0.043275
O       0.652697   -0.607074    1.147632
C      -1.416725   -0.336174   -0.137469
C      -2.200037   -0.025729    1.050811
C      -2.787625    0.229069    2.069405
C       0.873497   -0.403014   -1.169136
O       0.461831   -0.382371   -2.299070
H       1.296687    1.837815    0.318600
H      -0.115102    2.098089   -0.734039
H      -0.327910    1.957380    1.024667
H       0.112672   -0.409299    1.922627
H      -1.819025    0.166813   -1.022202
H      -1.463823   -1.412614   -0.337293
H      -3.342707    0.450915    2.947418
H       1.896745   -0.751815   -0.910580
