20

C       0.084075    1.470644    0.009173
C      -0.066270   -0.044678    0.002468
C      -1.547046   -0.460717    0.014398
O       0.587003   -0.487299   -1.180763
C       0.822372   -1.886169   -1.254604
C       1.593720   -2.366116   -0.025883
C       0.846084   -1.899470    1.222462
O       0.609468   -0.499916    1.168170
H       1.145837    1.724424    0.000338
H      -0.392755    1.899524   -0.875096
H      -0.375632    1.889931    0.907007
H      -2.048728   -0.055563   -0.868092
H      -1.683752   -1.544115    0.009948
H      -2.031744   -0.065015    0.910562
H      -0.123671   -2.442754   -1.349576
H       1.388576   -2.043892   -2.176850
H       1.693327   -3.457292   -0.032693
H       2.597362   -1.927790   -0.033140
H      -0.098016   -2.457155    1.329550
H       1.429830   -2.067022    2.131950
