21

C       0.006191    1.627079   -0.048991
C      -0.034154    0.122552    0.231903
C      -1.419945   -0.486240    0.012144
C      -1.799157   -0.688974   -1.492290
C      -1.411402   -2.168228   -1.322346
O      -1.047620   -3.030204   -2.069990
C      -1.468271   -2.035080    0.218529
O      -0.460707   -2.591234    1.002815
C      -0.554806   -4.001254    1.125765
H       1.009401    2.030952    0.117368
H      -0.274296    1.854301   -1.083330
H      -0.684654    2.170005    0.605831
H       0.697478   -0.396286   -0.400740
H       0.274032   -0.074559    1.263965
H      -2.166093    0.055400    0.598866
H      -2.865642   -0.564373   -1.703798
H      -1.226929   -0.132752   -2.238696
H      -2.470331   -2.347802    0.565980
H       0.268849   -4.319385    1.768591
H      -1.507398   -4.296062    1.593225
H      -0.470567   -4.495431    0.151306
