18

O      -0.149392    0.137065    0.341889
C      -0.091973    1.312726    0.084943
C      -1.291394    2.265580   -0.022730
C      -0.797752    3.439173   -0.886176
C       0.719434    3.520989   -0.625280
C       1.170586    4.081724    0.758727
C       1.826729    2.714438    1.099116
C       1.187984    2.100639   -0.188509
H      -2.168781    1.743516   -0.409674
H      -1.540390    2.592229    0.996008
H      -0.976884    3.218273   -1.944878
H      -1.307524    4.381430   -0.662626
H       1.261228    3.961317   -1.464116
H       1.849923    4.936061    0.723211
H       0.334797    4.346251    1.413425
H       2.917035    2.735105    1.040652
H       1.545626    2.247191    2.046389
H       1.857792    1.522895   -0.827715
