16

C      -0.022473    1.534074   -0.002534
C      -0.008609    0.039910   -0.006351
C      -0.026965   -0.794414   -1.065170
C      -0.002395   -2.246761   -0.632891
N       0.031943   -2.086180    0.811991
N       0.065773   -2.933024    1.847837
N       0.085043   -2.185273    2.925077
C       0.064129   -0.863376    2.576629
C       0.029226   -0.786497    1.200582
H       0.868316    1.932505    0.496326
H      -0.054288    1.931695   -1.019424
H      -0.891525    1.916100    0.545068
H      -0.055676   -0.502445   -2.106527
H      -0.891626   -2.805531   -0.946039
H       0.880710   -2.788613   -0.990015
H       0.075299   -0.087315    3.323470
