16

C       0.293139    1.503831   -0.529564
C       0.144574    0.087519   -0.234890
C       0.011763   -1.085217    0.005223
C      -0.081423   -2.490087    0.283911
O      -0.969259   -2.920732    1.336004
C      -1.290732   -3.305988    0.001477
C      -2.526929   -2.717478   -0.642019
N      -3.169790   -1.803208    0.124166
O      -2.879337   -3.080578   -1.747232
H       1.302380    1.725394   -0.892650
H      -0.417829    1.826392   -1.297676
H       0.120719    2.112485    0.364755
H       0.867311   -3.026094    0.282055
H      -1.143041   -4.356858   -0.240971
H      -2.790676   -1.541231    1.018509
H      -3.965658   -1.319422   -0.255561
