15

O      -0.235704    1.358422    0.066683
C      -0.051938   -0.023004    0.014816
C       1.048083   -0.516578   -0.765445
C       1.976922   -0.949703   -1.396821
C      -0.461355   -0.871081    1.242989
O      -1.169476   -0.208831    2.247116
C      -2.366736    0.313622    1.676741
O      -2.526260   -0.256066    0.385749
C      -1.330315   -0.878157    0.034190
H       0.448383    1.725578    0.638926
H       2.792544   -1.321173   -1.966743
H       0.156960   -1.684960    1.600088
H      -3.220782    0.031801    2.305028
H      -2.284841    1.402432    1.590057
H      -1.452253   -1.695658   -0.664523
