17

C      -0.384553    1.481378    0.136696
C       0.329770    0.150781    0.044212
C       1.768093    0.018315    0.507742
C       0.648878   -0.640427    1.276322
O       0.228139   -0.098891    2.502067
C       0.940979   -0.571941    3.616936
C       2.302854   -0.011896    3.737495
N       3.363927    0.431216    3.848971
H      -0.101895    2.016823    1.045749
H      -0.138067    2.112049   -0.723609
H      -1.471151    1.345811    0.155055
H       0.054206   -0.451264   -0.817621
H       2.456906   -0.608960   -0.047196
H       2.218006    0.894326    0.961006
H       0.560204   -1.726644    1.237813
H       0.370670   -0.280108    4.504136
H       1.019718   -1.669505    3.613876
