23

C       0.563294    1.638340    0.101956
C       0.521371    0.141132   -0.194669
N       0.864001   -0.614515    1.007697
C      -0.221618   -1.107737    1.845732
C       0.628754   -2.053892    1.066515
C       0.049427   -2.852142   -0.080707
N       1.060473   -3.096489   -1.108159
C       1.908833   -4.267934   -0.911398
C       0.849934   -4.262170   -1.957948
H       1.550517    1.928693    0.471955
H       0.342278    2.217742   -0.800056
H      -0.174394    1.906590    0.865774
H      -0.472115   -0.120322   -0.596347
H       1.253166   -0.119822   -0.966170
H      -0.097456   -0.998484    2.920277
H      -1.243152   -0.960131    1.492206
H       1.417434   -2.585731    1.599338
H      -0.361775   -3.796531    0.324740
H      -0.784351   -2.320284   -0.549118
H       2.954523   -4.147835   -1.178765
H       1.731233   -4.885721   -0.031852
H      -0.031422   -4.875621   -1.774804
H       1.106997   -4.136922   -3.005836
