12

F       0.102561    0.073631    0.002733
C      -0.050162    1.385973    0.011216
N      -1.216853    1.898862    0.029651
C      -1.227365    3.286678    0.036630
C      -0.121136    4.062474    0.025375
C       1.203319    3.469783    0.004448
N       2.288934    4.143483   -0.007048
N       1.129151    2.050478   -0.001546
H      -2.217812    3.728828    0.052291
H      -0.176366    5.142425    0.031429
H       3.116591    3.546399   -0.021268
H       1.983999    1.511786   -0.015826
