12

O      -0.064363    1.446624    0.011404
C       0.043301    0.028116   -0.003530
C       0.684237   -0.470780   -1.229369
C       1.215727   -0.849062   -2.237722
C       0.731550   -0.489275    1.187004
C       1.301407   -0.888234    2.176551
C       1.943937   -1.339131    3.287569
C       2.514129   -1.738391    4.273929
H       0.830593    1.804614   -0.026708
H      -0.996762   -0.323782    0.016325
H       1.681275   -1.190450   -3.129547
H       3.015446   -2.091117    5.141028
