16

F      -0.247778   -0.060953    0.231021
C      -0.083450    1.269028    0.100877
F       1.237968    1.500313    0.024598
F      -0.620642    1.620207   -1.078196
C      -0.710531    2.029126    1.251203
C      -2.206320    1.677328    1.446622
C      -2.180538    0.799134    2.705048
O      -1.133201    1.338989    3.496188
C      -0.065686    1.647765    2.616408
H      -0.573389    3.088545    1.026259
H      -2.777789    2.589043    1.633873
H      -2.639966    1.177017    0.578632
H      -3.100734    0.838953    3.292359
H      -1.974321   -0.249848    2.441509
H       0.603823    0.784091    2.496953
H       0.507514    2.467079    3.055758
