18

C      -0.070050    1.617592    0.010600
C       1.438078    1.264857   -0.028171
C       1.147458    0.180356    1.063646
C       2.117199   -0.988096    1.225348
C       2.536488   -1.542477   -0.108692
C       2.045349   -0.986535   -1.214237
C       1.095911    0.167190   -1.094844
C      -0.009239    0.069475    0.013686
H      -0.438004    2.095051    0.923251
H      -0.485398    2.089126   -0.884754
H       2.285668    1.952510   -0.061549
H       0.840240    0.586281    2.033470
H       2.998583   -0.663205    1.797817
H       1.651994   -1.775400    1.836779
H       3.227396   -2.380002   -0.137134
H       2.312939   -1.345168   -2.203699
H       0.750627    0.551514   -2.058153
H      -0.844967   -0.633174    0.028987
