23

C      -0.224038    1.404109    0.198236
O      -0.168233   -0.002449    0.348795
C      -1.287676   -0.666897   -0.182411
C      -1.064213   -2.180984   -0.005308
C      -2.197501   -2.647106    0.950596
C      -3.374679   -3.226590    0.148376
C      -1.714217   -3.652212    1.999929
C      -2.605557   -1.296501    1.574383
O      -2.477464   -0.349691    0.516146
H       0.692954    1.809499    0.631707
H      -0.273092    1.690422   -0.863879
H      -1.091815    1.830781    0.714371
H      -1.449867   -0.341979   -1.220167
H      -1.093112   -2.706598   -0.962817
H      -0.075943   -2.332509    0.434482
H      -3.066368   -4.115227   -0.413007
H      -4.197372   -3.518603    0.810652
H      -3.760225   -2.491072   -0.564260
H      -0.873957   -3.252031    2.576923
H      -2.515426   -3.907277    2.703060
H      -1.383728   -4.584271    1.528986
H      -3.641219   -1.266702    1.924245
H      -1.941527   -1.034232    2.410948
