21

C      -0.228287    1.616352   -0.040672
C       0.033554    0.115542   -0.012603
C       1.105669   -0.572457   -0.911855
C       2.412142    0.135369   -0.506105
C       2.350501   -0.388893    0.939984
O       2.499615   -1.825436    0.714677
C       1.169179   -1.733401    0.195968
C       0.780829   -0.577284    1.147117
C       0.254456   -0.748362    2.547969
H       0.666222    2.207197    0.175235
H      -0.608675    1.932983   -1.018286
H      -0.982618    1.886105    0.706709
H      -0.920010   -0.414755   -0.140010
H       0.921339   -0.774739   -1.965754
H       3.301888   -0.250942   -1.007584
H       2.375903    1.220422   -0.614999
H       3.014536    0.005798    1.708738
H       0.643420   -2.676852    0.052725
H       0.877482   -1.452179    3.109853
H       0.249296    0.203205    3.092575
H      -0.771502   -1.132813    2.543171
