21

O       0.132252    1.427740   -0.028450
C       0.018943    0.019840   -0.021494
C      -1.420964   -0.422103    0.028445
C      -2.422588    0.469192   -0.009289
C      -3.862979    0.239823    0.056309
C      -4.581757   -0.891212   -0.020230
C      -4.122653   -2.303171   -0.248281
C      -2.699535   -2.497685   -0.778923
C      -1.593190   -1.919125    0.120500
H       1.063769    1.652383   -0.099264
H       0.489136   -0.422433   -0.919749
H       0.550932   -0.419412    0.843075
H      -2.131271    1.513378   -0.060790
H      -4.436455    1.154182    0.199550
H      -5.660262   -0.789393    0.090473
H      -4.245329   -2.870353    0.687738
H      -4.821452   -2.778713   -0.951247
H      -2.529002   -3.573583   -0.901756
H      -2.615597   -2.051866   -1.776475
H      -0.640273   -2.398245   -0.139475
H      -1.787233   -2.204080    1.164821
