18

C      -0.088582    1.571875    0.043754
C       0.048073    0.042778   -0.000020
C       0.817080   -0.507121   -1.232876
C       2.234064   -0.860383   -0.717972
C       1.958671   -1.409344    0.687180
O       3.052763   -1.465154    1.555811
C       0.873508   -0.458801    1.185829
O       0.794402   -0.104056    2.337927
H       0.883616    2.059004   -0.086188
H      -0.750980    1.921395   -0.753211
H      -0.496636    1.889182    1.006653
H      -0.954717   -0.394966    0.072375
H       0.327474   -1.408497   -1.616020
H       0.843840    0.214493   -2.053070
H       2.760457   -1.568216   -1.361336
H       2.856301    0.037536   -0.626672
H       1.485735   -2.405742    0.582323
H       2.737563   -1.092419    2.393690
