21

C       0.307424    0.857312    0.719129
O       0.255718   -0.419352    0.125078
C       0.456782   -0.413589   -1.286754
C       1.944405   -0.279863   -1.652950
C      -0.113960   -1.645708   -1.830671
C      -0.571528   -2.650844   -2.309964
C      -1.107078   -3.886299   -2.865862
C      -0.253780   -5.109675   -2.513034
O      -0.873944   -6.232819   -3.115821
H       1.304885    1.317409    0.660117
H      -0.417943    1.548943    0.261809
H       0.050665    0.726817    1.773236
H      -0.089904    0.442719   -1.718910
H       2.068612   -0.294505   -2.739186
H       2.356773    0.659522   -1.274153
H       2.507412   -1.112328   -1.223621
H      -2.127942   -4.059229   -2.504151
H      -1.174388   -3.815133   -3.958463
H       0.770611   -4.959974   -2.885654
H      -0.197673   -5.211683   -1.419286
H      -0.366670   -7.016743   -2.887035
