16

C      -0.321414    1.384142   -0.400598
O      -0.378456   -0.029741   -0.644519
C       0.798176   -0.623385   -0.850686
O       1.865417   -0.053736   -0.840167
C       0.666242   -2.102828   -1.110920
C       1.519161   -2.585489   -2.261433
N       1.915867   -2.873667   -0.896779
C      -0.573480   -2.758560   -0.797292
C      -1.606041   -3.322002   -0.554525
H       0.281432    1.594678    0.485779
H       0.114872    1.902696   -1.257643
H      -1.353661    1.696564   -0.247001
H       1.152720   -3.433512   -2.830989
H       2.059140   -1.825562   -2.818640
H       2.625343   -2.196870   -0.613127
H      -2.518330   -3.816645   -0.329392
