17

C      -0.328421    0.921205    0.925547
C       0.331442   -0.320893    0.313585
C       0.689106   -0.132729   -1.144791
C       0.432917   -1.195835   -2.144845
O      -0.404073   -0.052559   -2.071999
C       1.827889    0.817991   -1.435687
O       2.604899    1.164413   -0.571095
C       1.951376    1.290109   -2.804699
C       2.102049    1.697666   -3.927023
H       0.354820    1.774514    0.915987
H      -1.230476    1.193028    0.369306
H      -0.613667    0.730927    1.963986
H       1.246360   -0.568995    0.860483
H      -0.343191   -1.179579    0.391703
H       1.048662   -1.266997   -3.039418
H      -0.003530   -2.129117   -1.791755
H       2.230380    2.063898   -4.916815
