18

C       0.094224    1.450429   -0.021397
N       0.013959    0.009717    0.008656
C      -0.052184   -0.917231   -1.004602
O      -0.125254   -0.800561   -2.198411
C       0.002287   -2.080736    0.008056
C       0.113389   -0.968527    1.111848
C       1.400320   -0.927890    1.920719
C      -1.133055   -0.925255    1.984631
O      -1.135735   -0.968121    3.186432
H       1.046004    1.810290    0.386341
H       0.021462    1.757379   -1.067338
H      -0.724196    1.914631    0.540298
H      -0.900752   -2.695175    0.035898
H       0.881110   -2.722754   -0.068285
H       2.270250   -1.000479    1.262418
H       1.471861   -0.001588    2.498060
H       1.422017   -1.755075    2.634299
H      -2.076905   -0.845561    1.396452
