17

O       0.461925    0.885543    0.785720
C      -0.135519   -0.125264    0.029372
C      -1.585538    0.134563   -0.404484
C      -1.764061   -0.828885   -1.577415
C      -2.750443   -1.917545   -1.574160
O      -2.948762   -0.732878   -2.355202
C      -0.421810   -0.926683   -2.305228
C       0.575848   -0.352028   -1.306478
O       1.719189   -0.023106   -1.502944
H       1.353425    0.993842    0.420995
H      -0.101713   -1.095016    0.564494
H      -2.317620   -0.015957    0.390573
H      -1.671102    1.168799   -0.758961
H      -2.556829   -2.824821   -2.145553
H      -3.425293   -2.035926   -0.727319
H      -0.149634   -1.941630   -2.608978
H      -0.418541   -0.307520   -3.209173
