15

O      -0.013068    1.391164    0.085535
C       0.089948   -0.012530    0.019860
C      -1.336350   -0.584497   -0.044210
C      -1.348636   -0.402533   -1.579444
O      -1.938077   -1.699217   -1.810654
C      -1.272285   -2.071557   -0.562219
C       0.180038   -2.068492   -1.078103
O       1.002981   -2.934812   -1.140108
C       0.225765   -0.582979   -1.439449
H       0.859143    1.765806   -0.075700
H       0.790562   -0.406032    0.767871
H      -2.133035   -0.282298    0.631749
H      -1.769109    0.417787   -2.153677
H      -1.686251   -2.941964   -0.059447
H       0.969532   -0.225867   -2.146141
