16

C       0.008927    1.534130    0.146373
O       1.379864    1.931495    0.015630
C       2.093368    0.996430   -0.803533
C       1.355382   -0.309953   -0.648243
N       1.028678   -0.684766    0.725954
C       0.011414    0.036738   -0.035772
C      -0.669542   -0.834060   -1.086940
O      -0.302639   -0.347761   -2.386200
C       0.638781   -1.171562   -1.683156
H      -0.325945    1.877856    1.128742
H      -0.621344    1.989458   -0.631332
H       2.080460    1.292513   -1.862569
H       3.125945    0.987398   -0.444316
H       0.808061   -1.674626    0.802194
H      -1.582436   -1.413734   -1.018878
H       0.972727   -2.072874   -2.183302
