17

N      -0.073717    1.241495   -0.195921
C      -0.046135   -0.001886   -0.002418
C      -1.140498   -1.072080    0.027485
O      -1.489032   -1.554364    1.347080
C      -0.558438   -2.666600    1.260577
C       0.020914   -2.101247   -0.027557
C       0.798976   -2.663954   -1.220783
C       1.703118   -1.398903   -1.135313
N       1.010943   -0.969483    0.135629
H       0.872922    1.631092   -0.218125
H      -2.002627   -0.969116   -0.634922
H       0.124123   -2.714165    2.115448
H      -1.093018   -3.619129    1.148893
H       1.326716   -3.592707   -0.990796
H       0.232002   -2.803787   -2.143217
H       2.767843   -1.587748   -0.983584
H       1.580122   -0.679326   -1.950133
