21

C       0.021970    1.584605   -0.256820
C       0.024834    0.099354    0.104460
N      -1.321681   -0.448553    0.179898
C      -2.148742    0.055539    1.293679
C      -3.100883   -1.094762    1.583086
C      -2.880135   -2.182154    0.615810
C      -1.402119   -1.903410    0.282702
C      -1.104108   -2.442724    1.715940
N      -2.563918   -2.405363    2.072381
H       1.046390    1.953040   -0.366918
H      -0.511958    1.748834   -1.197393
H      -0.463646    2.185572    0.518443
H       0.564709   -0.459522   -0.669420
H       0.586927   -0.045501    1.048377
H      -1.544925    0.313920    2.181294
H      -2.701216    0.957449    1.006088
H      -4.088532   -0.883610    1.976136
H      -3.622538   -2.744462    0.063628
H      -0.923627   -2.397561   -0.563569
H      -0.776471   -3.485252    1.729315
H      -0.448515   -1.851672    2.365036
