17

C       0.014374    1.358271   -0.393042
N      -0.030697   -0.062052   -0.049069
C      -1.032391   -0.519770    1.004026
C      -0.159334   -1.792749    1.129780
C       0.787534   -0.546847    1.146911
C      -0.192870    0.118007    2.150226
C       2.279546   -0.571999    1.135815
O       2.967289   -0.296759    2.086626
H       0.933031    1.552015   -0.955998
H      -0.828954    1.571421   -1.058050
H      -0.026260    2.070672    0.443697
H      -2.107448   -0.456551    0.829624
H      -0.227132   -2.359439    2.058804
H      -0.096413   -2.411082    0.234836
H      -0.170834    1.203896    2.222493
H      -0.270760   -0.335702    3.140399
H       2.720081   -0.887085    0.162711
