19

C       0.023281    1.501746   -0.043094
C      -0.040918    0.002507    0.039032
O       0.269736   -0.714278   -1.210780
C      -0.328546   -1.849084   -0.510972
C       0.655282   -2.038775    0.658926
C       0.850980   -0.775501    1.038001
C      -1.371395   -0.837198    0.079768
C      -2.166869   -1.089722    1.348430
O      -3.217179   -2.027710    1.137523
H       1.037920    1.825952   -0.295300
H      -0.658704    1.878430   -0.809725
H      -0.249451    1.950955    0.917362
H      -0.589891   -2.689228   -1.153485
H       1.052915   -2.965855    1.045082
H       1.460765   -0.353874    1.824154
H      -2.040980   -0.500308   -0.717383
H      -1.509525   -1.399849    2.171331
H      -2.662001   -0.161732    1.656544
H      -2.812920   -2.880069    0.947227
