20

C      -0.391595    1.413449    0.061824
C       0.066395   -0.046834    0.029593
C       0.820092   -0.401229   -1.275789
C       0.622284   -1.852724   -1.716931
C       0.966536   -2.903338   -0.701591
C       1.303194   -2.775184    0.585377
N       1.410639   -1.635328    1.389116
C       0.920675   -0.349989    1.255472
O       1.178958    0.477034    2.109979
H       0.461982    2.090602   -0.034448
H      -1.083336    1.607991   -0.763468
H      -0.888990    1.650498    1.004148
H      -0.816968   -0.699341    0.091351
H       0.460397    0.254984   -2.075221
H       1.887789   -0.181147   -1.157632
H      -0.424549   -1.990271   -2.029127
H       1.213635   -2.037816   -2.624487
H       0.933609   -3.926822   -1.065031
H       1.544649   -3.673724    1.145260
H       1.912356   -1.747864    2.258582
