23

C       0.137340    1.520509    0.008705
C       0.063747    0.065781    0.001598
C       0.013215   -1.137752   -0.004332
C      -0.049726   -2.595405   -0.011447
C      -1.490693   -3.182576   -0.000767
C      -2.235010   -2.743099    1.270678
C      -2.259263   -2.729445   -1.252840
C      -1.342715   -4.712709   -0.010470
O      -2.633331   -5.304504   -0.001385
H       1.177358    1.865729    0.000498
H      -0.359281    1.950906   -0.868113
H      -0.342180    1.941423    0.899533
H       0.480023   -2.973966   -0.896785
H       0.496838   -2.983278    0.859522
H      -2.341783   -1.655348    1.298864
H      -3.227775   -3.196990    1.306661
H      -1.690609   -3.051045    2.171188
H      -1.732276   -3.027523   -2.166928
H      -3.252561   -3.183072   -1.274664
H      -2.366500   -1.641468   -1.267175
H      -0.777483   -5.018527   -0.906615
H      -0.760543   -5.028167    0.871377
H      -2.527196   -6.259681   -0.007897
