21

O      -0.547265    1.719598    0.521502
C      -0.346932    0.371498    0.188473
C       0.082518   -0.684615    1.248377
C      -1.378323   -0.659602    1.784398
C      -1.524020   -0.668406    0.223254
C      -0.398555   -1.751929    0.227806
C      -2.784639   -0.654304   -0.569116
C      -3.432732    0.664119   -0.932080
C      -2.780853   -0.173606   -2.001281
H      -1.009414    1.771875    1.364489
H       0.243265    0.380652   -0.732218
H       1.002085   -0.700208    1.833797
H      -1.720421   -1.558630    2.304676
H      -1.719881    0.229076    2.326049
H       0.184493   -1.861762   -0.691389
H      -0.673736   -2.722518    0.646707
H      -3.463521   -1.474379   -0.346525
H      -4.515233    0.725670   -0.912331
H      -2.918413    1.568209   -0.627069
H      -1.841776    0.179014   -2.413927
H      -3.414167   -0.690000   -2.714013
