18

O      -0.145891    0.028148   -0.073044
C       0.000626    1.224871    0.011579
C       1.304880    1.898746   -0.003771
C       1.865387    2.959586    0.927552
C       3.208478    2.217002    0.989214
C       2.733851    1.336078   -0.211017
C       3.172711    1.972099   -1.532513
C       2.522929    3.379819   -1.444197
N       1.446396    3.297598   -0.423608
H      -0.859791    1.920746    0.122811
H       1.370873    3.474577    1.744759
H       4.122084    2.805595    0.852716
H       3.287995    1.642600    1.914652
H       2.878350    0.261645   -0.123596
H       4.260943    2.019056   -1.635953
H       2.775957    1.409859   -2.384261
H       3.236332    4.154596   -1.149214
H       2.071008    3.688579   -2.389867
