19

O       0.149606    1.390619    0.159724
C       0.026353    0.014081    0.036723
C       0.848048   -0.773273    1.053512
O       0.510459   -2.117090    0.668717
C      -0.381292   -1.891575   -0.422335
C      -1.346493   -0.756336    0.020821
C      -2.049785   -0.289167   -1.253732
C      -0.840378   -0.308788   -2.246285
C       0.263385   -0.782430   -1.300383
H      -0.394079    1.815372   -0.511717
H       1.926324   -0.600867    0.956441
H       0.546055   -0.578484    2.089216
H      -0.733073   -2.837406   -0.832309
H      -1.932443   -0.863275    0.934882
H      -2.855262   -0.963333   -1.558419
H      -2.493324    0.706846   -1.142758
H      -0.995245   -0.993536   -3.084895
H      -0.625829    0.676536   -2.675461
H       1.271867   -0.915216   -1.694862
