18

O      -0.162955   -0.016056   -0.241564
C      -0.000083    1.159709   -0.035987
C       1.350880    1.850889   -0.065458
C       1.384176    2.934722   -1.127609
C       1.426664    2.557216   -2.629596
N       2.404446    3.659352   -2.884237
C       2.520106    3.949059   -1.433932
C       1.507816    5.014804   -0.984922
O       0.463207    4.013808   -0.846328
H      -0.855297    1.834293    0.181612
H       1.519943    2.318823    0.913096
H       2.125237    1.099939   -0.244838
H       1.823484    1.550349   -2.807190
H       0.479285    2.670487   -3.165264
H       3.271107    3.329834   -3.291145
H       3.520538    3.944462   -0.998805
H       1.724532    5.491022   -0.020205
H       1.264966    5.771788   -1.736599
