16

N      -0.285921    1.201710    0.623605
C      -0.118567    0.060142    0.140276
O       1.036524   -0.567883   -0.312219
C       0.299194   -1.766877   -0.697594
C       0.233456   -2.836782    0.408692
C      -1.060122   -2.178813    0.977618
C      -1.024817   -1.109360   -0.157439
C       0.517913   -2.141045   -2.130992
O       0.335371   -3.251997   -2.560528
H       0.591173    1.721342    0.684565
H       0.070559   -3.829088   -0.015473
H       1.108882   -2.854336    1.059361
H      -1.936295   -2.825414    0.915126
H      -0.998462   -1.767300    1.986064
H      -1.920546   -0.927182   -0.747044
H       0.839364   -1.296829   -2.778339
