13

O       0.050291    0.015426   -0.419963
C       0.018581    1.185416   -0.111559
N       1.055644    1.869277    0.470599
C       2.497040    1.617500    0.219023
C       2.600744    2.723072   -0.894684
O       3.706490    3.415579   -0.259429
C       2.892293    2.985049    0.863903
C       1.532186    3.237108    0.137299
H      -0.892399    1.813333   -0.192608
H       2.966649    0.640358    0.288169
H       2.569113    2.647010   -1.981249
H       3.204702    3.224207    1.878660
H       0.899427    4.122750    0.119471
