20

O       0.006687    1.290781   -0.328073
C       0.032931   -0.074852    0.039289
C       0.358982   -1.036517   -1.149841
C      -1.126318   -1.499700   -1.172067
C      -1.401659   -0.676969    0.124238
C      -1.445146   -1.406447    1.453728
C      -0.459063   -2.487129    1.720353
N      -0.218940   -1.141164    2.252003
C       0.683164   -0.317334    1.425676
H       0.905847    1.557469   -0.549125
H       0.693192   -0.512347   -2.048592
H       1.083354   -1.820945   -0.914044
H      -1.675756   -1.125604   -2.038069
H      -1.299231   -2.574513   -1.090855
H      -2.202115    0.060714    0.048667
H      -2.378420   -1.399804    2.009477
H      -0.673894   -3.240348    2.473871
H       0.158832   -2.847268    0.900926
H       1.672507   -0.784914    1.364524
H       0.792544    0.654800    1.917428
