14

O      -0.272191    0.087483   -0.304747
C      -0.034438    1.141976    0.221186
C       1.265671    1.921095    0.041746
C       1.617088    2.585796    1.288820
N       1.815707    3.074048    2.317404
C       2.456149    1.357292   -0.801587
C       1.644139    1.519624   -2.107451
C       1.505096    2.802198   -1.262166
O       2.943348    2.748312   -0.975129
H      -0.764275    1.638940    0.893340
H       3.173966    0.597737   -0.498056
H       2.264079    1.654697   -2.992623
H       0.780243    0.878765   -2.267409
H       1.059509    3.771092   -1.483140
