19

C      -0.120815    1.620006   -0.061642
C       0.025716    0.108741   -0.027830
C       0.548362   -0.661666   -1.229988
C       1.278816   -1.616677   -0.277416
C       2.567687   -1.334132   -1.061743
C       2.863105    0.048201   -0.667478
C       2.341526    0.266680    0.740333
N       1.116417   -0.542803    0.819296
N       1.893635   -0.189000   -1.790425
H       0.723767    2.114809   -0.547509
H      -1.022640    1.878266   -0.626561
H      -0.234433    2.029352    0.947918
H      -0.923426   -0.333788    0.301162
H      -0.094814   -0.966125   -2.057995
H       0.969878   -2.618764    0.012400
H       3.230322   -2.039805   -1.549143
H       3.767470    0.539825   -1.013278
H       3.086088   -0.095908    1.461946
H       2.126823    1.307348    0.992010
