15

O       0.001018   -0.064933   -0.139844
C      -0.013430    1.144690    0.014308
N      -1.187006    1.855902    0.155186
C      -1.290776    3.303907    0.080539
C      -0.042274    3.930469    0.700137
C       1.206019    3.338026    0.047433
N       1.143663    1.887728    0.123638
H      -2.003137    1.296869   -0.034311
H      -1.402346    3.652716   -0.959220
H      -2.187285    3.622507    0.622938
H      -0.058877    5.015330    0.563138
H      -0.025207    3.721895    1.774896
H       1.280675    3.689762   -0.994639
H       2.107500    3.680886    0.566302
H       1.969340    1.351105   -0.087989
