19

C       0.004689    1.476586    0.059869
C       0.000863   -0.020434   -0.009012
C      -0.944454   -0.899103    0.813013
C       0.551057   -1.044065    0.952422
C       0.447558   -2.068536   -0.232707
C      -1.094921   -2.211976   -0.021442
C      -1.711612   -1.997385   -1.380621
C      -0.883638   -1.233738   -2.106654
C       0.322772   -0.905289   -1.265015
H       0.967493    1.889674   -0.262867
H      -0.774158    1.904558   -0.582861
H      -0.179673    1.828406    1.080811
H      -1.655190   -0.466739    1.506202
H       1.210820   -0.962091    1.803986
H       1.080882   -2.934291   -0.422382
H      -1.434097   -3.068231    0.562484
H      -2.700120   -2.334279   -1.670441
H      -1.074611   -0.836625   -3.096805
H       1.236191   -0.603599   -1.780333
