20

C      -0.042749    1.432128    0.367108
C      -0.071517   -0.071690    0.083813
C      -1.494446   -0.613418   -0.097525
C      -1.528667   -2.102108   -0.361134
O      -1.023542   -2.888144    0.792434
C      -2.257468   -3.445875    1.004579
N      -2.714254   -4.152812    1.934943
C      -2.892713   -2.833529   -0.227176
O      -4.026324   -2.033057   -0.018030
H       0.982595    1.791946    0.495759
H      -0.495363    2.000349   -0.453218
H      -0.597681    1.672952    1.280440
H       0.517801   -0.288542   -0.817084
H       0.411920   -0.614840    0.903949
H      -2.105218   -0.393860    0.784836
H      -1.987735   -0.113820   -0.941730
H      -0.951830   -2.374970   -1.249864
H      -2.014767   -4.335331    2.656377
H      -3.063067   -3.562606   -1.030112
H      -4.493806   -2.398176    0.742217
