21

O       0.100064    1.419020   -0.069106
C       0.063798   -0.000546   -0.022422
C      -1.365784   -0.546542   -0.012059
C      -1.425766   -2.076305   -0.038886
O      -0.751544   -2.539942    1.124723
C      -0.954323   -3.919794    1.378480
C      -2.419974   -4.206543    1.711343
C      -3.306942   -3.534964    0.696291
C      -2.842432   -2.588290   -0.115401
H      -0.255572    1.746734    0.762904
H       0.583363   -0.338444   -0.926553
H       0.619421   -0.393102    0.839051
H      -1.892181   -0.196409    0.885487
H      -1.902663   -0.149346   -0.880998
H      -0.875988   -2.426532   -0.935567
H      -0.648760   -4.516687    0.503489
H      -0.293049   -4.178295    2.210346
H      -2.594657   -5.290085    1.717703
H      -2.656967   -3.850363    2.723221
H      -4.343489   -3.855245    0.631243
H      -3.476181   -2.136332   -0.874187
