20

C      -0.411103    1.393608    0.146689
C      -0.023076   -0.045031    0.016821
C      -0.150322   -0.825335   -1.059523
C       0.391170   -2.212638   -0.835472
C       0.597745   -2.281721    0.710717
C      -0.559248   -3.029356    1.380336
O       1.843124   -2.872396    1.078798
C       0.632125   -0.797213    1.153105
H       0.458043    2.018292    0.390581
H      -0.855602    1.776867   -0.776072
H      -1.133410    1.539133    0.960334
H      -0.564463   -0.501654   -2.009353
H      -0.275967   -3.003381   -1.202204
H       1.358606   -2.353786   -1.336390
H      -0.606479   -4.068451    1.031091
H      -0.431896   -3.035478    2.466977
H      -1.517228   -2.556072    1.141593
H       1.795985   -3.812271    0.873710
H       1.675613   -0.482993    1.287065
H       0.131941   -0.639631    2.116910
