18

C      -0.010548    1.529926    0.023868
C      -0.026525    0.034934   -0.045619
C       0.634476   -0.865353   -1.142132
C      -0.612102   -1.824349   -1.084974
C       0.080678   -2.656900    0.058143
C       1.289401   -1.673304    0.017016
N       0.653088   -0.769956    1.076213
C      -0.558436   -1.704632    1.114025
C      -1.282720   -0.897813   -0.003909
H       1.019006    1.905017    0.035071
H      -0.527275    1.969099   -0.837412
H      -0.505683    1.879536    0.936785
H       1.124934   -0.516160   -2.049962
H      -1.118616   -2.246222   -1.950160
H       0.129117   -3.743211    0.108713
H       2.343552   -1.935346    0.112628
H      -0.972345   -1.991565    2.081181
H      -2.322970   -0.574520   -0.002975
