18

C      -0.005591    1.531644    0.171264
C      -0.008476    0.023204    0.071436
C       1.238226   -0.722303   -0.370521
C       0.779270   -0.806308    1.063784
O       1.553216   -0.129962    2.037875
C       1.494936   -0.844731    3.273202
C       0.661166   -2.062851    2.981835
C       0.261431   -2.028096    1.713986
H       0.937868    1.890649    0.589425
H      -0.145995    1.992185   -0.812823
H      -0.810853    1.884067    0.824960
H      -0.953129   -0.412715   -0.246559
H       1.142524   -1.595394   -1.007926
H       2.130917   -0.129003   -0.541613
H       2.516123   -1.094808    3.600246
H       1.051163   -0.207457    4.054993
H       0.439067   -2.823046    3.719082
H      -0.354317   -2.753316    1.198239
