19

O       0.113644    1.369700    0.015624
C       0.072998   -0.034739   -0.045271
C       0.174864   -0.671959    1.412416
O       0.788778    0.111959    2.403325
C      -1.332151   -0.738613    1.361139
C      -2.416540   -0.292880    1.989274
C      -3.477261    0.083676    0.958142
C      -2.646869    0.298094   -0.351434
C      -1.395763   -0.576866   -0.137795
H       0.906440    1.599274    0.516626
H       0.781320   -0.429590   -0.785975
H       0.689599   -1.637153    1.395305
H       0.185459    0.843910    2.579444
H      -2.536074   -0.126851    3.054153
H      -4.228944   -0.708896    0.835271
H      -4.027117    0.984928    1.250640
H      -3.208786    0.046176   -1.254826
H      -2.345174    1.346994   -0.422167
H      -1.415857   -1.513435   -0.705563
