16

O       0.043480    1.419445    0.012496
C       0.057776    0.008647   -0.080865
C      -1.396487   -0.489660   -0.004559
O      -1.287340   -1.906063    0.031332
C      -2.093923    0.049601    1.282116
C      -1.428959   -0.395085    2.503241
N      -0.898076   -0.734309    3.471737
C      -2.176062   -0.049379   -1.166400
C      -2.855809    0.265822   -2.105780
H       0.944983    1.724845    0.145049
H       0.488637   -0.343292   -1.027134
H       0.605272   -0.459087    0.747971
H      -2.127114   -2.282344   -0.252754
H      -2.093166    1.142132    1.249310
H      -3.134497   -0.288968    1.294053
H      -3.438515    0.554597   -2.946138
