16

C      -0.026522    1.553583    0.060616
C       0.024495    0.060215    0.031051
C      -0.826713   -0.896417    0.824971
C       0.696866   -0.969508    0.951137
C       1.170864   -1.638937   -0.317075
N       1.351317   -2.766631   -0.970777
C       0.870791   -2.408039   -2.215812
N       0.342340   -1.191893   -2.334806
N       0.644526   -0.678489   -1.107096
H       0.943816    1.984715   -0.201276
H      -0.772502    1.930959   -0.646604
H      -0.306538    1.901394    1.059075
H      -1.353271   -0.464975    1.672833
H      -1.357059   -1.700602    0.325633
H       1.232151   -0.799696    1.874056
H       0.932254   -3.074194   -3.065101
