19

C      -0.072113    1.508453    0.485532
C      -0.042631   -0.014043    0.356738
O      -0.193990   -0.650771    1.616667
C      -1.093192   -0.517186   -0.665074
C      -1.151009   -2.028738   -0.686929
O      -0.500438   -2.719988   -1.435553
C      -2.100242   -2.706457    0.336042
C      -2.208525   -4.204837    0.245046
O      -2.698281   -2.032489    1.146987
H       0.678534    1.831988    1.211418
H       0.136423    1.994603   -0.473361
H      -1.053856    1.848580    0.834573
H       0.946023   -0.327227   -0.000397
H      -1.134296   -0.660040    1.838390
H      -2.074855   -0.115096   -0.394802
H      -0.823705   -0.171108   -1.666172
H      -1.218809   -4.652642    0.379700
H      -2.901535   -4.573874    1.000946
H      -2.539299   -4.498389   -0.756327
