16

N       0.025742    1.425210    0.088536
C       0.034749    0.009521    0.015959
C      -1.241674   -0.692732    0.088530
O      -2.305582   -0.072591    0.194427
C      -1.137897   -2.146696    0.046523
C       0.062732   -2.761822   -0.051152
N       1.228961   -2.041837   -0.077052
C       1.220265   -0.667581   -0.028169
N       2.458494   -0.025229   -0.078602
H       3.172017   -0.482148    0.478824
H       2.347206    0.937084    0.227548
H       0.280027    1.849160   -0.800002
H      -0.941295    1.688670    0.278689
H      -2.051215   -2.727116    0.076889
H       0.183024   -3.836649   -0.108184
H       2.100137   -2.513115   -0.256897
