17

O       0.532333    0.784733   -0.916097
C       0.122339   -0.231938   -0.040409
C       0.078255    0.053694    1.493025
C      -1.330136   -0.623776    1.564854
C      -2.375906    0.088729    2.376733
O      -3.116265   -0.434397    3.168712
C      -1.383130   -0.451549    0.029684
C      -2.408060    0.194811   -0.792784
O      -2.142933   -1.216565   -0.869218
H       1.465960    0.670227   -1.115396
H       0.631969   -1.182353   -0.249599
H       0.861740   -0.372800    2.120230
H       0.009506    1.131319    1.669132
H      -1.291994   -1.676431    1.853829
H      -2.418775    1.187702    2.186220
H      -3.369750    0.461389   -0.357333
H      -2.097937    0.773623   -1.659383
