14

O       0.170092    1.391698    0.231750
C       0.043207    0.004010    0.105763
C      -1.369957   -0.473841   -0.096341
N      -2.277139    0.427108   -0.194514
O      -3.594439   -0.004729   -0.397640
C      -3.885710   -1.346438   -0.475177
N      -5.062622   -1.783283   -0.646841
C      -2.743532   -2.253896   -0.350533
N      -1.537738   -1.860723   -0.172077
H      -0.678181    1.785534   -0.008416
H       0.636863   -0.384286   -0.739400
H       0.435422   -0.494223    1.004792
H      -5.739037   -1.020290   -0.714489
H      -2.966273   -3.316547   -0.419438
