17

O       0.223255    1.442091   -0.160132
C       0.069081    0.064919   -0.073047
C      -1.346156   -0.634374    0.005317
C      -0.641964   -1.769974    0.811464
O       0.059459   -2.689858   -0.014841
C       0.477373   -2.132498   -1.263103
C       0.903740   -0.655066   -1.153881
C       0.312004   -0.637203    1.264972
O       0.788653   -0.259377    2.298064
H       0.281730    1.786128    0.740267
H      -2.039877   -0.076535    0.638721
H      -1.827431   -0.899706   -0.936317
H      -1.197668   -2.335156    1.558898
H       1.303567   -2.758163   -1.609879
H      -0.335129   -2.231751   -1.995354
H       0.744421   -0.147329   -2.111622
H       1.964415   -0.555374   -0.903281
