16

O      -0.170269    0.015700    0.141051
C      -0.012767    1.197503   -0.045638
C       1.293052    1.882022   -0.058640
N       1.370659    3.317233    0.308976
C       1.563511    2.963548   -1.085295
C       3.015201    2.829065   -1.550343
C       3.608079    1.675080   -0.743754
O       3.654902    1.884889    0.668114
C       2.578203    1.109407    0.145815
H      -0.877862    1.879890   -0.231214
H       0.427730    3.681238    0.448815
H       0.802434    3.248193   -1.807406
H       3.035827    2.579461   -2.616542
H       3.575351    3.758030   -1.407692
H       4.430742    1.094627   -1.155253
H       2.520294    0.070173    0.450294
