16

C      -0.047486    1.451627    0.077316
N       0.060661    0.004255   -0.016078
C      -0.062771   -0.774684    1.183867
C      -1.495175   -0.779069    1.759273
N      -1.581742   -1.285388    3.021924
O      -2.452015   -0.373848    1.135410
C       0.154626   -0.597878   -1.238654
O       0.215795   -0.025727   -2.303993
H       0.725884    1.850520    0.744851
H       0.093663    1.856174   -0.924751
H      -1.033616    1.740240    0.452530
H       0.213615   -1.812960    0.963715
H       0.638579   -0.414048    1.949540
H      -0.787542   -1.659800    3.511125
H      -2.493861   -1.386030    3.436234
H       0.187500   -1.702197   -1.146385
