17

O       0.046044   -0.003857    0.416624
C      -0.014800    1.120236    0.005123
C      -1.317430    1.908737   -0.080312
C      -1.221944    3.120933   -0.978095
C      -1.757316    3.118589   -2.388768
C      -2.399773    3.969974   -1.307111
O      -0.013963    3.810107   -0.741590
C       1.067635    3.004630   -1.071192
O       1.125610    1.779874   -0.324935
H      -2.108562    1.220514   -0.384141
H      -1.540918    2.226520    0.946388
H      -1.176254    3.637163   -3.143100
H      -2.284784    2.239732   -2.742935
H      -3.368340    3.676641   -0.916971
H      -2.228919    5.039432   -1.351540
H       1.053950    2.739532   -2.138378
H       1.978569    3.550153   -0.821304
