20

C      -0.052019    1.503657   -0.025151
C       0.049986    0.011308    0.019151
C       0.444924   -1.004649   -0.983088
C       0.917733   -1.991203    0.094140
C      -0.224617   -3.018435    0.105943
C      -1.314029   -1.960270    0.370165
C      -0.858616   -1.393602    1.728261
C       0.489773   -0.897423    1.185725
N      -0.991324   -0.847349   -0.612917
H       0.927701    1.970278    0.125816
H      -0.444533    1.827876   -0.993073
H      -0.726889    1.877966    0.753424
H       0.738832   -0.926227   -2.024957
H       1.949004   -2.337835    0.090736
H      -0.334497   -3.524437   -0.857991
H      -0.164905   -3.768176    0.900787
H      -2.353762   -2.269601    0.272616
H      -1.485962   -0.573244    2.090804
H      -0.791375   -2.160738    2.505671
H       1.248487   -0.542807    1.880993
