23

C       0.897579    1.256817   -0.110375
C       0.223218   -0.111736    0.010257
C       0.712771   -0.909786    1.217424
C       0.058860   -2.273029    1.373245
O      -0.802995   -2.667994    0.620423
C       0.564468   -3.157970    2.513598
C       1.446398   -4.268921    1.966038
C       2.931758   -4.063487    1.792977
C       2.414022   -4.992926    2.864174
H       1.984296    1.159614   -0.214439
H       0.528798    1.803094   -0.983924
H       0.706432    1.876599    0.773172
H      -0.863337    0.006112    0.080722
H       0.396064   -0.699638   -0.897721
H       1.801176   -1.066990    1.177391
H       0.546740   -0.353549    2.152671
H       1.119261   -2.568495    3.252052
H      -0.311273   -3.591991    3.009201
H       0.954412   -4.867024    1.204914
H       3.415641   -4.493550    0.923209
H       3.358058   -3.117923    2.113402
H       2.490499   -4.666618    3.896332
H       2.541085   -6.061113    2.727152
