14

N      -0.073419    1.302950    0.235038
C      -0.051630    0.071354   -0.029024
C      -1.280627   -0.791024   -0.043147
C      -1.225199   -1.748516   -1.230955
N       0.057524   -2.429874   -1.196577
C       1.233429   -1.861487   -0.811272
O       2.312488   -2.380670   -0.891391
O       1.141084   -0.577927   -0.294888
H       0.871560    1.691673    0.208549
H      -1.312517   -1.373749    0.885423
H      -2.157806   -0.145522   -0.076108
H      -2.020879   -2.494761   -1.161693
H      -1.365713   -1.198768   -2.172580
H       0.169859   -3.317648   -1.658581
