13

F      -0.000738    0.022641    0.003052
C      -0.013331    1.355973    0.010542
C      -1.232849    2.012687    0.030674
C      -1.237723    3.413328    0.038428
C      -0.032208    4.127615    0.026011
C       1.173598    3.436386    0.005875
C       1.193486    2.044036   -0.002037
C      -2.484378    4.115715    0.059179
N      -3.491129    4.686609    0.075957
H      -2.155404    1.446484    0.040069
H      -0.051649    5.210232    0.032217
H       2.108436    3.985214   -0.003781
H       2.122416    1.486599   -0.017686
