15

C      -0.042220    1.454279    0.010432
C      -0.038850   -0.000506    0.002569
C      -0.041996   -1.203394   -0.003871
C      -0.019330   -2.655363   -0.011883
O      -1.353189   -3.159273   -0.001815
C      -1.374819   -4.564419   -0.009043
C      -2.766005   -5.024165    0.001737
N      -3.850187   -5.420389    0.009804
H       0.979942    1.848043    0.002547
H      -0.559962    1.854550   -0.867672
H      -0.542638    1.845025    0.902755
H       0.512890   -3.025339   -0.904783
H       0.529850   -3.034844    0.866642
H      -0.876564   -4.976235   -0.902828
H      -0.859760   -4.985598    0.870737
