16

C       0.043071    1.505548   -0.084126
O       1.503975    1.379283    0.070401
C       1.327190    0.101330    0.545591
N       2.029713   -0.559834    1.341992
C       1.314962   -1.715827    1.906456
C      -0.124615   -1.962352    1.388618
N      -0.842105   -0.691479    1.140065
C      -0.098287   -0.027287    0.090852
H      -0.374615    2.092738    0.737331
H      -0.218661    1.929054   -1.055278
H       1.906339   -2.624697    1.748287
H       1.289018   -1.547899    2.989993
H      -0.078210   -2.578754    0.472720
H      -0.676846   -2.536256    2.138357
H      -1.793809   -0.895529    0.852738
H      -0.176843   -0.510412   -0.897548
