15

N      -0.113706   -1.159632   -0.263841
C      -0.057947   -0.016821   -0.095272
C       0.030043    1.422861    0.075863
C      -0.421910    2.294774   -1.135479
N       0.789825    3.150215   -1.004585
C       1.351291    2.279529    0.052193
C       0.961862    2.776661    1.461320
N      -0.251258    1.909792    1.436549
H      -0.473323    1.720703   -2.066823
H      -1.368225    2.829849   -0.996707
H       1.350222    3.161961   -1.847801
H       2.346661    1.868758   -0.115529
H       1.641572    2.497051    2.273257
H       0.779971    3.855007    1.486230
H      -1.145410    2.373791    1.553113
