14

C      -0.185470   -1.250055   -0.138428
C      -0.043099   -0.061168   -0.047257
C       0.091913    1.381616    0.089980
C      -0.542062    1.945345    1.403813
N       0.408159    3.016870    1.730837
C       1.570784    2.706978    1.040593
N       1.510181    1.830225    0.110711
C       2.779338    3.417636    1.364341
N       3.730679    3.999832    1.665546
H      -0.298322   -2.302167   -0.230918
H      -0.376457    1.865787   -0.778758
H      -1.549181    2.335558    1.247189
H      -0.571946    1.176468    2.184856
H       0.492139    3.319150    2.691234
