19

C       0.015916    1.476112   -0.114645
C      -0.004560   -0.040742    0.100950
O       0.601241   -0.400720    1.340393
C      -1.391659   -0.602691    0.049078
C      -2.227877   -1.005283   -1.136886
C      -1.971200   -1.998452   -0.031115
O      -1.421832   -3.231525   -0.301538
C      -2.785551   -1.614407    1.201253
O      -2.252001   -0.258514    1.156706
H       1.035717    1.852661   -0.002366
H      -0.350509    1.735008   -1.112986
H      -0.623024    1.974878    0.621603
H       0.592385   -0.531755   -0.676648
H      -0.030072   -0.139990    2.022982
H      -3.208355   -0.562468   -1.292769
H      -1.662541   -1.223940   -2.037947
H      -0.773526   -3.430001    0.384570
H      -3.878602   -1.635078    1.128805
H      -2.461888   -2.127359    2.115416
