16

O      -0.107807    1.423622    0.006277
C       0.014965    0.067608    0.025125
C       0.067314   -1.004698   -1.009159
N       1.277402   -1.614395   -0.446122
C       0.915056   -0.972427    0.852797
C      -0.412120   -1.625347    1.281787
C      -0.692671   -2.802271    2.101217
O      -0.926688   -1.462436    2.587088
C      -1.064805   -0.991691    0.080372
H       0.666412    1.795439   -0.433273
H      -0.159845   -0.980338   -2.067770
H       1.233290   -2.634507   -0.390942
H       1.708547   -0.775330    1.571569
H      -1.591683   -3.390466    1.921851
H       0.120317   -3.336359    2.592376
H      -2.112477   -0.903409   -0.172744
