19

C      -0.186251    1.377197   -0.045223
O      -0.172728   -0.031427   -0.089757
C       0.744904   -0.539861   -1.031466
C       0.652670   -2.051079   -1.003956
C       0.817433   -2.685859    0.360630
N      -0.316347   -2.616218   -1.947163
C       1.126001   -2.825302   -2.199463
C       1.685888   -2.192321   -3.370239
N       2.169479   -1.691361   -4.293399
H       0.797578    1.785436    0.234922
H      -0.475444    1.811445   -1.014295
H      -0.919804    1.671648    0.708728
H       0.518491   -0.172563   -2.042451
H       1.773327   -0.225651   -0.780746
H       0.025555   -2.336319    1.027406
H       0.772940   -3.777843    0.298228
H       1.777722   -2.408766    0.807614
H      -0.720957   -3.476458   -1.583701
H       1.551519   -3.804930   -1.996826
