18

C      -0.037052    1.585884    0.013199
C      -0.046661    0.057247    0.015531
C       0.741079   -0.551802    1.195338
C       0.157897   -0.189213    2.489118
N      -0.329767    0.131076    3.486388
C       0.891490   -2.076282    1.047393
O       0.688621   -2.675221    0.024847
O       1.318961   -2.630058    2.186784
C       1.522172   -4.052307    2.149262
H       0.983599    1.978151   -0.057841
H      -0.600296    1.968119   -0.842495
H      -0.490337    1.992033    0.922540
H      -1.073638   -0.319910    0.050725
H       0.397386   -0.339046   -0.900940
H       1.765703   -0.151877    1.183799
H       0.591667   -4.562171    1.890130
H       2.286439   -4.308911    1.411873
H       1.845942   -4.328066    3.151960
