19

O       0.195941    1.354980   -0.214999
C       0.054080   -0.032624   -0.049535
C       0.168184   -0.613616    1.396792
C      -1.335596   -0.238271    1.567638
C      -1.397991   -0.604666    0.056320
C      -1.106657   -2.128676    0.079467
C       0.089350   -2.123087    1.119087
C      -2.239246   -2.949877    0.474401
C      -3.177233   -3.622988    0.812236
H      -0.334484    1.810082    0.446620
H       0.701868   -0.481394   -0.809601
H       0.939023   -0.269084    2.086918
H      -1.940487   -0.829684    2.259020
H      -1.507406    0.822704    1.766531
H      -2.199013   -0.267158   -0.600833
H      -0.755910   -2.458926   -0.904734
H       1.007789   -2.522571    0.680606
H      -0.149951   -2.705875    2.010639
H      -4.005274   -4.221142    1.101787
