16

O       0.039896    0.043828    0.290289
C       0.052645    1.221254    0.084342
N      -1.000036    2.172667   -0.025436
C      -1.696265    2.611142    1.229849
C      -0.654774    3.758470    1.407925
C      -0.043263    3.333192    0.039967
C       1.115297    2.330556    0.016187
C       2.448310    2.345294    0.630193
O       2.269815    2.378466   -0.787339
H      -2.713570    2.951768    1.025984
H      -1.724956    1.834018    1.997619
H      -1.069417    4.767165    1.436445
H       0.018385    3.628242    2.258808
H      -0.078591    4.053112   -0.779377
H       2.815185    3.267107    1.079198
H       2.855164    1.417808    1.028575
