17

C       0.146066    1.298668   -0.130406
N       0.251054   -0.145850   -0.063081
C       0.744493   -0.709820    1.092419
C       0.894888   -0.194170    2.343647
O       1.379420   -1.213958    3.152131
C       1.501909   -2.264227    2.332738
C       2.003890   -3.572234    2.857543
O       2.112600   -4.519896    1.825419
N       1.146781   -2.041884    1.105516
H       1.100535    1.815603    0.058361
H      -0.221603    1.587522   -1.117005
H      -0.579973    1.650591    0.611293
H       0.609068   -0.595043   -0.893078
H       0.725036    0.755535    2.814523
H       2.983030   -3.420678    3.335756
H       1.321570   -3.925423    3.647798
H       1.725738   -4.115473    1.036908
