16

C      -0.049614    1.586914   -0.025780
C       0.062573    0.052024    0.026909
C       0.706023   -0.458619   -1.203333
N       1.222223   -0.844278   -2.162237
N       0.746944   -0.440535    1.211000
C       2.144263   -0.094756    1.435634
C       0.102290   -1.278423    2.084220
O       0.583833   -1.742186    3.091514
H       0.934681    2.055081   -0.092248
H      -0.629440    1.890208   -0.900945
H      -0.552610    1.943022    0.876605
H      -0.950333   -0.366896    0.052428
H       2.263075    0.969380    1.664648
H       2.487800   -0.681300    2.287272
H       2.745207   -0.338767    0.553492
H      -0.937853   -1.484715    1.762863
