16

C       0.127053    1.588546   -0.041917
C      -0.017352    0.050983    0.001968
N       0.358330   -0.629500   -1.228528
C       0.875869   -0.488192    1.128554
O       1.993120   -0.894474    0.933881
N       0.283482   -0.416026    2.394853
C       0.858243   -0.713132    3.630291
O       1.986756   -1.064068    3.827420
H       1.169469    1.863762   -0.229296
H      -0.490723    1.994874   -0.849070
H      -0.192524    2.061288    0.893282
H      -1.064675   -0.188883    0.241652
H       0.186621   -0.032328   -2.030077
H       1.356994   -0.819501   -1.190770
H      -0.681929   -0.121147    2.424079
H       0.110127   -0.574184    4.437800
