17

C      -0.205419    1.465668    0.092277
N       0.035368    0.027308    0.090025
C       1.364335   -0.467603   -0.199592
C       0.797773   -0.576137    1.188200
C       1.399002    0.235777    2.329228
N       0.351957    0.634946    3.271377
C       0.270068   -1.856655    1.628963
N      -0.123767   -2.869079    2.025581
H       0.688968    2.073297    0.294170
H      -0.587079    1.744088   -0.894333
H      -0.959146    1.698534    0.846835
H       1.427814   -1.345592   -0.835992
H       2.173268    0.253386   -0.322201
H       2.211875   -0.363705    2.772193
H       1.860142    1.139682    1.922086
H      -0.058994   -0.191821    3.697617
H       0.759182    1.174210    4.029037
