17

C       0.018023    1.529509   -0.048323
C      -0.060992    0.033470   -0.005792
C      -1.213740   -0.691330   -0.079159
C      -1.112470   -2.116006   -0.023811
C      -2.373792   -2.935578   -0.102556
N       0.018580   -2.765208    0.092322
C       1.210696   -2.066460    0.169705
O       2.308828   -2.567064    0.278072
N       1.103539   -0.651905    0.114694
H       0.628370    1.863251   -0.895044
H      -0.976813    1.965910   -0.146268
H       0.480525    1.921090    0.864707
H      -2.172245   -0.199951   -0.176053
H      -2.913654   -2.723555   -1.032416
H      -2.130954   -3.997049   -0.058341
H      -3.048530   -2.682587    0.723285
H       1.987153   -0.164425    0.172714
