20

O       0.486507    1.090957   -0.541440
C       0.087282   -0.112693    0.103841
C      -1.413682   -0.310497    0.101520
C      -2.208512    0.813904    0.747124
N      -1.986911    0.945428    2.183679
C      -2.755390    0.311394    3.105527
O      -3.671614   -0.444968    2.852842
C      -2.033470   -0.990869   -1.101590
C      -1.946019   -1.715526    0.218818
H       0.158148    1.051237   -1.446291
H       0.577614   -0.990719   -0.344381
H       0.458722   -0.026718    1.131644
H      -1.938355    1.764898    0.278894
H      -3.278454    0.645299    0.601725
H      -1.261580    1.562312    2.511306
H      -2.457505    0.570021    4.141191
H      -3.007751   -0.653449   -1.439085
H      -1.375246   -1.312657   -1.903071
H      -1.228885   -2.525877    0.303362
H      -2.851418   -1.849382    0.798698
