18

C      -0.097486    1.526915    0.049640
C       0.135196    0.053663    0.017881
O      -0.735847   -0.819868    0.749339
C       0.680730   -0.911598    0.986074
C       1.254879   -1.807240   -0.113936
C       0.670779   -0.787414   -1.171948
C      -0.356625   -1.312772   -2.160326
O       1.685116   -0.025053   -1.804553
H       0.768536    2.050415   -0.363512
H      -0.974908    1.796292   -0.549126
H      -0.268351    1.865329    1.075115
H       1.017266   -0.771688    2.007344
H       2.346713   -1.801903   -0.149374
H       0.875448   -2.832381   -0.131271
H      -1.179963   -1.794695   -1.628243
H      -0.754434   -0.495728   -2.770690
H       0.093419   -2.053569   -2.833295
H       2.071729   -0.563628   -2.503140
