13

C      -0.029889    1.438749   -0.130868
N       0.024093   -0.015221   -0.137523
C      -1.016862   -0.673724    0.138737
O      -2.222746   -0.037009    0.449662
N      -3.414162   -0.756452    0.770677
N      -3.387626   -1.989924    0.772251
C      -2.230476   -2.698069    0.470514
F      -2.409504   -4.000261    0.525270
C      -1.067310   -2.119256    0.160216
H       0.961382    1.829904   -0.367983
H      -0.742996    1.822356   -0.871973
H      -0.338494    1.832881    0.845903
H      -0.170337   -2.676132   -0.072711
