15

C       0.008520    1.449978   -0.014714
N       0.004759    0.002713    0.069235
N      -0.032877   -0.739484   -1.069247
N      -0.028874   -1.986597   -0.730933
C       0.013225   -2.066725    0.635692
C       0.029713   -3.289954    1.351091
N       0.044291   -4.264635    1.975776
C       0.034538   -0.786284    1.166200
C       0.079092   -0.293118    2.569207
H       0.916160    1.860180    0.436449
H      -0.022513    1.709012   -1.072504
H      -0.866399    1.867984    0.490670
H       0.971668    0.314761    2.753788
H      -0.796145    0.321192    2.807691
H       0.096952   -1.140839    3.256566
