17

C       0.002146    1.525455    0.225064
C       1.297113    2.215875   -0.235454
C       2.441495    1.242372   -0.406569
C       2.548362   -0.100323    0.213377
C       1.204132   -0.826428    0.400306
C       0.058219    0.039277   -0.059310
C       0.970370   -0.602722   -1.073823
N       2.331933    0.042851   -1.273002
H      -0.150396    1.670960    1.301090
H      -0.863499    1.971882   -0.274751
H       1.144135    2.712339   -1.201527
H       1.593830    2.999789    0.469103
H       3.401857    1.723354   -0.585482
H       3.483917   -0.497576    0.595729
H       1.082679   -1.722555    0.993779
H      -0.895337   -0.479677    0.008323
H       0.630046   -1.274234   -1.851949
