16

C      -0.383653    1.602248   -0.124445
C      -0.082768    0.092357   -0.018440
C       0.804630   -0.275693    1.187726
C       0.182439    0.068553    2.463713
N      -0.331616    0.346363    3.460762
C      -1.400943   -0.696837   -0.001754
O      -2.331679   -0.430793   -0.714017
C       0.633536   -0.328084   -1.312107
O       1.717549   -0.843965   -1.343964
H       0.536518    2.172231   -0.282820
H      -1.067853    1.787338   -0.954484
H      -0.857457    1.956284    0.794854
H       1.030269   -1.347243    1.174799
H       1.768324    0.234970    1.103293
H      -1.424261   -1.566608    0.689406
H       0.055163   -0.099837   -2.230963
