15

O      -0.126209    0.081186    0.044291
C       0.025025    1.264371    0.042183
O      -0.976702    2.186446    0.149986
C      -0.268189    3.481407    0.097402
C      -1.057965    4.268861   -0.975557
O      -0.297903    3.514492   -2.001617
C       0.730912    3.303024   -0.990382
C       1.254722    2.139443   -0.056799
C       0.880792    3.213112    1.113623
H      -2.128210    4.068983   -1.034885
H      -0.833218    5.338395   -1.030558
H       1.488908    4.087857   -1.071357
H       2.223501    1.654640   -0.140552
H       1.617606    4.011587    1.199501
H       0.617580    2.799090    2.087921
