19

C       0.245342    1.380345    0.216117
C      -0.163726   -0.031988   -0.208552
C       0.764429   -0.612832   -1.266026
O       0.308586   -1.912355   -1.603646
C       1.087869   -2.536101   -2.572362
C       2.334499   -3.276694   -2.154494
C       1.083945   -4.029066   -2.570501
H       1.256092    1.393853    0.638977
H       0.233294    2.072341   -0.633322
H      -0.436130    1.775860    0.974764
H      -0.168065   -0.703772    0.657640
H      -1.185358   -0.029654   -0.605612
H       0.773891    0.030630   -2.162637
H       1.800173   -0.657481   -0.891719
H       1.105069   -2.020591   -3.534377
H       3.192720   -3.277408   -2.817517
H       2.573626   -3.272678   -1.096873
H       0.511861   -4.506360   -1.783247
H       1.075204   -4.549251   -3.521558
