17

C      -0.100159    1.554315   -0.093708
O       1.217084    2.015564    0.249715
C       1.947210    0.949688    0.823005
O       1.696481    0.796876    2.198420
C       0.423935    0.217963    2.496171
C       0.005114   -0.701544    1.354366
O       1.211408   -1.412566    0.951136
C       1.466849   -0.318113    0.051211
C      -0.024469    0.036455   -0.024482
H      -0.842379    1.988128    0.589382
H      -0.330470    1.900123   -1.107259
H       3.005676    1.195099    0.732588
H       0.552246   -0.358443    3.417358
H      -0.329859    0.998128    2.679299
H      -0.819568   -1.369231    1.615242
H       2.072198   -0.586527   -0.815745
H      -0.612395   -0.493031   -0.772727
