23

C       0.157054    1.469192   -0.083265
C       0.183319   -0.054507   -0.048543
C      -1.164213   -0.649483    0.297469
C      -2.205661   -0.863294   -0.774930
C      -1.519490   -2.047283   -0.138830
O       1.460287    1.932632   -0.396767
C       1.549002    3.318854   -0.472517
C       1.750496    4.117126    0.791900
C       2.887799    3.917195   -0.192350
H      -0.565961    1.822061   -0.836838
H      -0.166809    1.873965    0.889241
H       0.514601   -0.422372   -1.027198
H       0.940621   -0.374184    0.677981
H      -1.549039   -0.351042    1.270180
H      -3.246825   -0.679037   -0.534165
H      -1.936941   -0.613958   -1.796614
H      -0.792469   -2.590785   -0.733585
H      -2.090960   -2.670923    0.539723
H       0.937984    3.765066   -1.259265
H       1.292035    5.096618    0.873317
H       1.802385    3.558506    1.719834
H       3.671649    3.225718    0.094664
H       3.217404    4.757023   -0.793436
