17

C       0.043050    1.509643   -0.424194
N       0.015510    0.053718   -0.468516
C      -0.951582   -0.558867    0.024292
C      -1.343835   -2.014168    0.164060
C      -2.601478   -1.438418    0.850706
C      -2.787346   -1.772268    2.330240
C      -3.868584   -1.008343    2.949850
N      -4.732270   -0.410875    3.430503
O      -2.101338   -0.084403    0.659114
H       0.943897    1.831964    0.108816
H       0.122210    1.894177   -1.446558
H      -0.832623    1.960347    0.056335
H      -1.512281   -2.540386   -0.776431
H      -0.685715   -2.609497    0.801014
H      -3.536951   -1.574486    0.301653
H      -3.008075   -2.841657    2.431126
H      -1.854045   -1.576797    2.869676
