20

C      -0.071063    1.568357   -0.032646
C       0.045769    0.038119   -0.014304
C       0.678752   -0.492245   -1.280486
C       1.522543   -1.521921   -1.328234
C       1.940666   -2.315880   -0.119285
C       1.057020   -2.013815    1.097807
C       0.791480   -0.496804    1.239943
C       2.050122    0.219896    1.478505
N       3.046105    0.771784    1.679180
H       0.913342    2.039766   -0.103891
H      -0.666374    1.893404   -0.891512
H      -0.560594    1.938228    0.874350
H      -0.975148   -0.366454    0.058495
H       0.413112    0.029984   -2.196981
H       1.951663   -1.818710   -2.282067
H       1.902649   -3.388535   -0.344641
H       2.992534   -2.099470    0.114247
H       0.083526   -2.503000    0.980564
H       1.509939   -2.405339    2.013124
H       0.160451   -0.320866    2.119523
