15

O      -0.015309    0.033429    0.333770
C       0.006080    1.189587    0.026624
O      -1.115686    1.869140   -0.331741
C      -0.872205    3.245663   -0.675994
C       0.633130    3.500030   -0.490510
C       1.092288    4.085530    0.867213
O       0.432574    3.333432    1.890391
C       1.614160    2.782140    1.303957
C       1.200500    2.126289   -0.038776
H      -1.195743    3.390020   -1.710805
H      -1.486779    3.867048   -0.019590
H       1.117915    3.950270   -1.356380
H       1.398342    5.096578    1.108124
H       2.423549    2.506890    1.968136
H       2.026321    1.705710   -0.611228
