19

C      -0.034931    1.568417   -0.085039
C       0.025982    0.046030   -0.001586
C      -1.334092   -0.576126    0.329304
C       0.721864   -0.689269   -1.184600
N       2.095770   -0.175588   -1.275007
C       1.775613   -1.257300   -0.281599
C       1.139500   -0.562181    0.876349
N       1.265562   -0.547916    2.134550
O       2.342435   -1.357776    2.551265
H       0.933497    1.975359   -0.382298
H      -0.787500    1.884847   -0.816313
H      -0.308599    1.992953    0.885983
H      -2.078868   -0.290402   -0.422232
H      -1.278241   -1.669134    0.357757
H      -1.683263   -0.232184    1.306852
H       0.228430   -1.155039   -2.029011
H       2.546648   -0.642938   -2.062539
H       2.300106   -2.202156   -0.301281
H       2.316664   -1.248177    3.507732
