21

C       0.013317    1.441457   -0.158440
C       0.081473   -0.076410    0.071001
C       0.728656   -0.392314    1.405639
O       1.638858   -1.164158    1.568206
C      -1.315546   -0.693889    0.061719
C      -2.017815   -1.221627   -1.165272
C      -1.051152   -1.946173   -2.111564
C      -0.637411   -2.898398   -0.941927
C      -1.621620   -2.164877   -0.019193
H       1.012077    1.885576   -0.209563
H      -0.507595    1.659904   -1.095117
H      -0.535743    1.937969    0.650149
H       0.707627   -0.540859   -0.694742
H       0.272135    0.143654    2.273298
H      -2.004627   -0.173293    0.726314
H      -3.001650   -0.859934   -1.441531
H      -1.575691   -2.481953   -2.905407
H      -0.264893   -1.339655   -2.572986
H      -0.933845   -3.931402   -1.133981
H       0.410270   -2.890394   -0.628318
H      -2.256272   -2.644210    0.717055
