16

N       0.041512   -1.092052   -0.037231
C       0.017263    0.061058   -0.021748
C      -0.041557    1.521060    0.051544
C      -0.694403    2.172654    1.282923
C      -0.402927    3.565385    0.687936
C       1.113749    3.434812    0.461411
O       1.269721    2.057450    0.038547
C      -1.079378    3.404024   -0.685033
O      -0.790830    2.028523   -1.038597
H      -1.754168    1.932582    1.376131
H      -0.161014    1.954941    2.208947
H      -0.715310    4.436417    1.262128
H       1.490073    4.095879   -0.326129
H       1.694693    3.599360    1.376079
H      -2.165377    3.545169   -0.641747
H      -0.662101    4.065667   -1.451165
