15

C       0.065040    1.385204    0.561254
C      -0.071124   -0.059059    0.130239
C      -1.343766   -0.606898   -0.350889
O      -0.292135   -0.280272   -1.263278
C       1.367419    1.977565    0.129416
C       2.175974    1.767700   -0.946827
N       3.245837    2.619806   -0.814866
N       3.145989    3.309377    0.228571
O       1.922135    2.921277    0.888013
H      -0.758991    1.970119    0.135240
H      -0.017288    1.460308    1.650878
H       0.648868   -0.744542    0.578561
H      -1.551199   -1.669336   -0.237803
H      -2.221179    0.036342   -0.400685
H       2.066439    1.094296   -1.778473
