15

C      -0.005226    1.468214    0.095110
N      -0.001398    0.046621   -0.197101
C      -1.161638   -0.679140   -0.072583
C      -1.289078   -2.070428   -0.008439
N      -2.640478   -2.322636    0.057234
N      -3.372110   -1.217104    0.044967
C      -2.498139   -0.211467   -0.030029
C      -0.300688   -3.068772    0.002049
N       0.535371   -3.874093    0.014452
H       1.004345    1.859654   -0.043817
H      -0.663044    1.994694   -0.604474
H      -0.335116    1.702789    1.118585
H       0.836118   -0.445705    0.073886
H      -3.086988   -3.222493    0.116065
H      -2.851587    0.807115   -0.052415
