21

C      -0.090986   -1.244037   -0.015609
C      -0.068612   -0.041819   -0.009299
C      -0.011584    1.414854   -0.008690
C       1.431982    1.983045    0.023437
C       1.414561    3.509219   -0.159207
C       2.788836    4.120849    0.135927
C       3.210528    3.846198    1.587030
C       2.921580    2.424821    1.994730
C       2.149789    1.594575    1.294069
H      -0.123514   -2.305158   -0.020636
H      -0.521787    1.796667   -0.902625
H      -0.568009    1.804040    0.854084
H       1.963012    1.532303   -0.828492
H       1.088875    3.760001   -1.175416
H       0.671901    3.942698    0.525358
H       3.529824    3.682260   -0.544724
H       2.779821    5.198180   -0.060973
H       4.278680    4.060401    1.719481
H       2.690131    4.535241    2.269590
H       3.384237    2.074648    2.915052
H       2.001613    0.572384    1.633555
