22

C      -0.240677    1.609139    0.375838
C      -0.202424    0.079070    0.314727
C      -1.485330   -0.579525   -0.254043
C      -1.731565   -0.196076   -1.719969
C      -1.444135   -2.073474   -0.083039
C      -1.207332   -3.102049   -0.971402
C      -1.251428   -4.328619   -0.248846
C      -1.515097   -4.020720    1.063274
N      -1.626850   -2.654419    1.152613
H       0.660976    2.001465    0.856583
H      -0.301843    2.059092   -0.619565
H      -1.103687    1.962058    0.952704
H       0.652775   -0.253262   -0.287245
H      -0.027699   -0.314090    1.323785
H      -2.333179   -0.196478    0.336494
H      -1.865547    0.882944   -1.830427
H      -0.884996   -0.493128   -2.348755
H      -2.626895   -0.690112   -2.106854
H      -1.023791   -2.988833   -2.028570
H      -1.110959   -5.320478   -0.650384
H      -1.638236   -4.646697    1.932438
H      -1.835894   -2.147631    1.995243
