18

C      -0.142440    1.326609    0.004550
O      -0.021482   -0.077293   -0.011752
C       0.679903   -0.563591   -1.138069
C       0.641594   -2.081172   -1.081535
N      -0.740495   -2.539288   -1.166963
C      -0.872911   -3.973112   -0.958431
C      -2.277738   -4.388958   -1.011935
N      -3.384454   -4.718402   -1.032843
H       0.842271    1.818055    0.038445
H      -0.682985    1.698688   -0.879265
H      -0.702737    1.596033    0.902785
H       0.205581   -0.211830   -2.068060
H       1.723632   -0.209721   -1.131243
H       1.208404   -2.486745   -1.929254
H       1.149037   -2.415200   -0.157844
H      -1.285069   -2.034717   -0.474350
H      -0.330023   -4.500722   -1.753458
H      -0.448688   -4.333981   -0.002401
