22

C       0.089993    1.615984   -0.023811
C       0.008666    0.086838   -0.017300
C       0.613474   -0.524658    1.252386
C       0.693798   -2.058927    1.257536
C      -0.685561   -2.726980    1.125893
O       1.525083   -2.432484    0.158507
C       1.383228   -2.526804    2.549409
O       1.620723   -3.927568    2.413953
H       1.129373    1.957959    0.035431
H      -0.345507    2.033654   -0.937048
H      -0.447583    2.048409    0.828119
H      -1.039594   -0.217893   -0.117055
H       0.535554   -0.319686   -0.886603
H       1.633620   -0.138896    1.375824
H       0.042151   -0.196102    2.131046
H      -1.114203   -2.521274    0.143081
H      -0.589625   -3.809987    1.239706
H      -1.378636   -2.364355    1.893078
H       1.795977   -3.342021    0.337280
H       2.330432   -1.982404    2.664629
H       0.749520   -2.316588    3.423825
H       2.263582   -4.196381    3.075150
