16

N      -0.217431   -1.147372   -0.309803
C      -0.138761   -0.011338   -0.116113
C      -0.029316    1.428458    0.139749
C       1.384960    1.927638    0.098760
C       1.981134    3.331004   -0.004002
C       2.860743    3.101711    1.225129
C       2.723088    1.596303    0.880692
O       3.443656    1.463010   -0.375094
C       2.382631    2.198254   -0.973637
H      -0.628209    1.961654   -0.608596
H      -0.491653    1.641292    1.112056
H       1.495565    4.238511   -0.340462
H       3.878656    3.501785    1.234134
H       2.335337    3.358826    2.148313
H       2.920122    0.791431    1.584974
H       2.306990    2.243478   -2.051987
