19

O      -0.112593    1.369971    0.034827
C       0.044274   -0.025196    0.033132
C       0.708798   -0.711013   -1.202647
C       0.540151   -2.127107   -0.587473
C       1.183558   -1.891224    0.771569
C       0.885596   -0.643004    1.144636
C      -1.023306   -2.141520   -0.431438
C      -1.681150   -1.878248    0.899736
C      -1.349955   -0.727293   -0.012720
H       0.764956    1.765761    0.017044
H       0.133503   -0.562658   -2.121618
H       1.753477   -0.418256   -1.352959
H       0.927279   -2.971026   -1.157785
H       1.688780   -2.650208    1.355987
H       1.079164   -0.158872    2.094337
H      -1.583758   -2.654035   -1.204805
H      -2.731968   -2.142071    0.972014
H      -1.121956   -2.018448    1.817297
H      -2.140949   -0.142353   -0.467038
