12

O       0.042603   -0.110781    0.001756
C      -0.024453    1.097027    0.005641
C       1.199660    1.920175    0.000948
N       2.165582    2.555589   -0.002844
C      -1.240965    1.855047    0.016651
C      -2.265790    2.491267    0.025870
C      -3.515603    3.245418    0.037034
C      -3.329014    4.695179    0.043362
C      -3.183938    5.885892    0.048618
H      -4.113229    2.944555   -0.835403
H      -4.103138    2.935597    0.913175
H      -3.052584    6.940089    0.053277
