14

O       0.035863   -0.017949   -0.042236
C      -0.007591    1.186154    0.000191
C      -1.219878    2.050890    0.083759
C      -0.879507    3.342973    0.010745
C       0.610692    3.527592   -0.065333
C       1.369189    3.023048    1.163066
C       1.190142    2.123896   -0.035611
C       1.164994    4.585408   -0.859210
N       1.603326    5.447045   -1.494180
H      -2.215607    1.645284    0.201116
H      -1.551116    4.192110    0.038969
H       2.363329    3.423307    1.328769
H       0.780182    2.842122    2.055018
H       2.058535    1.847665   -0.618561
