16

C      -0.094377    1.593810   -0.017488
C       0.040200    0.062443    0.021178
N       0.845900   -0.419792   -1.135378
C       1.764210   -1.165748   -0.666577
N       1.825435   -1.415853    0.735222
C       2.199614   -0.164638    1.456634
C       0.774507   -0.512603    1.253088
C      -1.303732   -0.542039   -0.061851
N      -2.361146   -1.005760   -0.097279
H       0.894517    2.053614    0.037228
H      -0.570786    1.901085   -0.950454
H      -0.698657    1.947158    0.821880
H       2.509247   -1.641454   -1.297485
H       2.652205   -0.324533    2.429711
H       2.638382    0.632497    0.864052
H       0.183822   -0.886116    2.081357
