20

C       0.001927    1.514909    0.073628
C      -0.029325    0.016383   -0.042759
C      -0.080366   -0.624544   -1.212263
C      -0.077031   -2.125380   -1.341496
C       0.436150   -2.778146   -0.052766
N      -0.178054   -2.162305    1.108831
C       0.001573   -0.727751    1.271390
C      -0.931042   -2.861068    2.000686
O      -1.478552   -2.394261    2.978827
H       0.893067    1.852265    0.618718
H       0.005480    1.992050   -0.909517
H      -0.864703    1.888514    0.633597
H      -0.127304   -0.047971   -2.133236
H      -1.088137   -2.491364   -1.569485
H       0.555540   -2.433363   -2.183139
H       0.218884   -3.849981   -0.033366
H       1.527648   -2.661769    0.005049
H       0.949689   -0.515197    1.793820
H      -0.794490   -0.380566    1.937863
H      -0.994223   -3.934167    1.729900
