15

C       0.447434    1.521023   -0.121335
C       0.079539    0.082665    0.132524
O       1.139872   -0.887900    0.145923
C       0.413233   -0.678932    1.351510
C       1.164417   -0.160711    2.540965
C       2.588265   -0.475599    2.732908
O       2.163445    0.836075    2.355794
H       1.347772    1.796127    0.425896
H       0.615663    1.677491   -1.192231
H      -0.374022    2.178423    0.184587
H      -0.800927   -0.265540   -0.413018
H      -0.256067   -1.500648    1.623695
H       0.542736   -0.017494    3.426716
H       2.994178   -0.563529    3.739028
H       3.105233   -1.030241    1.953291
