21

C      -0.086942    1.588914   -0.201944
C       1.370928    1.976435    0.068453
O       2.443316    1.903093   -0.903433
C       2.171452    0.758378   -0.094810
C       1.271429   -0.271040   -0.783781
C      -0.018010    0.043430   -0.007202
C       0.272727   -0.438362    1.447833
C       1.623457    0.010863    2.106287
C       2.843057    0.218406    1.140781
H      -0.752146    2.093323    0.506019
H      -0.427437    1.836657   -1.213380
H       1.581590    2.684949    0.865718
H       1.189254   -0.051280   -1.851023
H       1.615434   -1.301042   -0.656153
H      -0.915012   -0.466853   -0.376464
H      -0.543315   -0.148713    2.120552
H       0.252741   -1.534509    1.406668
H       1.455643    0.970658    2.605862
H       1.877364   -0.701636    2.898650
H       3.378968   -0.716928    0.946177
H       3.550658    0.924608    1.584780
