22

C       0.057744    1.574247   -0.069489
C       0.019871    0.064634    0.015118
C       1.226617   -0.761142   -0.373993
C       0.809894   -0.685904    1.073420
O       1.686473    0.054085    1.887400
C       0.201337   -1.920161    1.685349
C       0.763225   -2.547883    2.913941
N      -0.566981   -1.946658    2.932347
C      -0.779975   -0.737461    3.711016
H       1.038722    1.959692    0.221025
H      -0.146068    1.912837   -1.090830
H      -0.694248    2.032578    0.584020
H      -0.944729   -0.376143   -0.225284
H       1.082829   -1.690081   -0.914879
H       2.134410   -0.222549   -0.622928
H       1.167315    0.687062    2.394643
H      -0.227781   -2.575878    0.927915
H       0.804831   -3.629101    3.021845
H       1.571908   -2.002161    3.396176
H       0.128856   -0.148065    3.908013
H      -1.511822   -0.098453    3.205105
H      -1.199957   -1.016684    4.683244
