20

C      -0.178193    1.483732   -0.016187
C       0.039553   -0.031093   -0.011036
N       0.783703   -0.496923   -1.168026
N       0.129144   -0.678927   -2.332701
C       1.070478   -1.050013   -3.197306
C       2.345932   -1.090923   -2.595141
N       3.610374   -1.395079   -3.163146
C       2.127282   -0.712302   -1.278643
C       3.109435   -0.552739   -0.167318
H       0.774239    2.021432    0.018869
H      -0.707398    1.781621   -0.924768
H      -0.774793    1.784251    0.850830
H       0.579841   -0.344701    0.886678
H      -0.921432   -0.551786   -0.021458
H       0.805130   -1.273692   -4.221465
H       3.564090   -1.378589   -4.175215
H       3.936507   -2.317927   -2.894188
H       4.117510   -0.589707   -0.588567
H       2.997116    0.405168    0.352308
H       3.031110   -1.345945    0.587138
