14

C       0.945173   -0.299565    1.320182
C       0.430705    0.353297    0.452516
C      -0.171898    1.160443   -0.611145
N       0.677375    2.197522   -1.208612
C       1.088801    3.279143   -0.325833
C       2.247359    2.990831    0.558447
N       3.165109    2.755983    1.218697
C       1.390084    4.484864   -1.125282
N       1.615379    5.425332   -1.754894
H       1.407823   -0.866885    2.090404
H      -0.494575    0.510354   -1.431697
H      -1.081029    1.648802   -0.238342
H       1.482077    1.792629   -1.674207
H       0.235988    3.524115    0.320534
