17

C      -0.216182    1.502637    0.114579
C      -0.060095    0.027636   -0.034457
N      -0.154418   -0.655230   -1.149832
C       0.056981   -1.981978   -0.816269
C       0.024972   -3.130800   -1.770819
O       0.857841   -4.207988   -1.292459
C       0.288203   -2.083012    0.530390
O       0.556363   -3.130021    1.337254
N       0.215278   -0.808373    1.030257
H       0.688319    1.976615    0.515028
H      -0.419082    1.927837   -0.869311
H      -1.047013    1.764666    0.780980
H      -0.972688   -3.577347   -1.859244
H       0.325739   -2.807800   -2.775554
H       1.770365   -3.904892   -1.362900
H       0.662725   -3.885550    0.733422
H       0.359224   -0.552363    1.992892
