20

C       0.006934   -1.200784    0.043965
C       0.015002    0.001799    0.051345
C       0.006244    1.443805    0.011501
C      -1.215670    2.069481   -0.679940
C      -0.869992    3.218096   -1.640281
C       0.140807    4.195311   -1.032749
C       1.473288    3.484197   -0.754824
C       1.319427    2.180088    0.002491
N       0.542365    2.096452    1.240672
H       0.006379   -2.262393    0.055221
H      -1.749154    1.284665   -1.222134
H      -1.907643    2.424372    0.095577
H      -0.444636    2.802015   -2.563041
H      -1.789400    3.739477   -1.927232
H       0.315550    5.038523   -1.708657
H      -0.266792    4.628801   -0.109041
H       1.965480    3.262505   -1.710922
H       2.156340    4.142061   -0.202574
H       2.218976    1.568694    0.033477
H       0.030982    2.964193    1.394194
