20

C      -0.062127    1.561371   -0.007829
C      -0.012025    0.052117    0.013498
C       0.890945   -0.682997   -1.021195
C       1.665777   -1.409930    0.118052
C       0.718309   -0.813862    1.167659
O       1.335907   -0.289540    2.296181
C      -0.588174   -1.574177    1.351440
N      -1.566993   -0.532492    1.762704
C      -1.272660   -0.743547    0.321492
H       0.944685    1.987061    0.064846
H      -0.511911    1.931341   -0.937760
H      -0.652733    1.941223    0.830948
H       0.353369   -1.338872   -1.711651
H       1.511885   -0.005865   -1.612249
H       1.723114   -2.501136    0.074725
H       2.674786   -1.013909    0.252371
H       0.625406    0.059035    2.850786
H      -0.733651   -2.614007    1.624173
H      -2.445763   -1.005488    1.969065
H      -2.059375   -1.040132   -0.363757
