20

C      -0.324580    1.055471   -1.599117
C      -0.022985   -0.197400   -0.803127
C       1.383860   -0.623847   -0.425151
C       2.622147    0.158831   -0.812167
C       0.412773   -0.170171    0.646823
C       0.600395    1.127422    1.425022
C      -0.647794    1.614890    2.006816
C      -1.683561    1.995090    2.484072
H       0.365135    1.875345   -1.384808
H      -0.263616    0.854601   -2.674427
H      -1.335608    1.416672   -1.383140
H      -0.692256   -1.017775   -1.051466
H       1.551245   -1.698445   -0.444707
H       2.464010    1.239883   -0.813347
H       3.447633   -0.049530   -0.122100
H       2.956665   -0.119465   -1.817717
H       0.000900   -0.959270    1.270042
H       1.331860    0.965636    2.228312
H       1.027437    1.909714    0.789487
H      -2.594792    2.339614    2.905800
