12

O      -0.181754    0.015892   -0.050346
C      -0.017143    1.201211   -0.136416
C       1.318186    1.908824    0.014215
C       1.424869    2.650060    1.390439
N       2.434728    1.881359    2.130743
C       2.880622    1.017576    1.320548
O       2.392455    0.959411    0.055231
H      -0.864388    1.906895   -0.304820
H       1.467328    2.579512   -0.838468
H       1.751170    3.688781    1.278863
H       0.475742    2.660002    1.936544
H       3.654862    0.290032    1.533538
