12

N       0.005398    1.425410   -0.227866
C       1.301154    0.759267    0.046941
C       0.049864   -0.029168    0.055819
C       0.514144   -0.780558   -1.237277
N       0.752420    0.216392   -2.308522
C       1.765425    0.007890   -1.246166
H      -0.272489    1.876265    0.644884
H       1.942791    1.067002    0.861842
H      -0.496350   -0.469895    0.879149
H       0.341699   -1.826188   -1.454951
H       1.078982   -0.311014   -3.119314
H       2.780824   -0.289264   -1.472279
