17

O       0.037107    1.417611    0.052619
C      -0.005948   -0.002474    0.007751
C      -1.390806   -0.452610    0.003732
C      -2.535759   -0.834574    0.000140
C      -3.853245   -1.339937   -0.005953
C      -5.011882   -0.672284    0.023976
C      -6.159406   -1.635985    0.002010
O      -5.566269   -2.930763   -0.043575
C      -4.149683   -2.827364   -0.050937
H       0.964376    1.676390    0.053787
H       0.498200   -0.390398   -0.893176
H       0.511362   -0.446654    0.874595
H      -5.129577    0.402291    0.058973
H      -6.798648   -1.547330    0.895483
H      -6.811984   -1.491132   -0.874314
H      -3.737467   -3.297224   -0.956610
H      -3.724127   -3.353518    0.816818
