17

C      -0.032435    1.403090   -0.149114
C       0.124903   -0.082772    0.060662
N       1.466632   -0.645891    0.037536
C       0.725485   -0.702155    1.303372
C       1.245712    0.139052    2.461520
C       2.329389   -0.527735    3.186629
N       3.171569   -1.073049    3.759360
C       0.143861   -2.034200    1.663985
O      -0.020330   -2.916446    0.856062
H       0.822758    1.962073    0.236072
H      -0.102604    1.613068   -1.221434
H      -0.946559    1.774950    0.324774
H      -0.661570   -0.692823   -0.381348
H       1.446646   -1.579905   -0.373488
H       1.613451    1.097966    2.091199
H       0.435412    0.353216    3.169192
H      -0.136504   -2.166007    2.730212
