17

C       0.032754    1.435382   -0.112939
N      -0.000909    0.012114    0.165278
C      -1.208123   -0.683100    0.092809
C      -2.469186   -0.077669    0.110087
N      -3.608992   -0.769233    0.098008
C      -3.503901   -2.100843    0.061954
N      -4.671549   -2.830514    0.118162
N      -2.355100   -2.795548    0.008582
C      -1.237921   -2.083583    0.028350
H       1.071440    1.772633   -0.098143
H      -0.409574    1.707334   -1.085297
H      -0.503444    1.989055    0.665690
H       0.772125   -0.495596   -0.239144
H      -2.569947    1.004065    0.132307
H      -5.501110   -2.326880   -0.152375
H      -4.599930   -3.775733   -0.222956
H      -0.303329   -2.644317   -0.014854
