22

C       1.629557   -4.062164    1.607589
C       1.059367   -2.862594    0.881378
N       0.383243   -1.748893    1.553779
C       0.235256   -1.727719    3.000848
C       1.678144   -1.494854    0.904676
C       2.938755   -1.211069    1.703151
C       1.550442   -0.624683   -0.347639
C       1.284987    0.821543    0.009590
O       1.944489    1.760399   -0.359380
H       2.185184   -3.807270    2.511143
H       0.828079   -4.752563    1.893080
H       2.309527   -4.606786    0.943912
H       0.560323   -3.145904   -0.047307
H       1.072014   -2.144520    3.577823
H       0.088501   -0.692281    3.324804
H      -0.666126   -2.289556    3.266641
H       3.823041   -1.414209    1.089696
H       2.984887   -0.156150    1.995980
H       3.020697   -1.810700    2.609703
H       2.448282   -0.678900   -0.971292
H       0.691502   -0.979566   -0.930292
H       0.401339    0.962803    0.671985
