18

O       0.076537    1.511832    0.071874
C       0.019534    0.111298   -0.013820
C      -1.351770   -0.540454   -0.129766
C      -1.992671   -0.291331   -1.552281
C      -1.864955   -1.817198   -1.721070
N      -0.670265   -1.742057   -0.804317
C       0.229559   -0.621519   -1.366938
C      -0.726809    0.169902   -2.293322
O      -0.757372   -0.234314   -3.651000
H       0.984062    1.770033    0.259581
H       0.584354   -0.379259    0.787493
H      -2.013902   -0.727572    0.716308
H      -2.915113    0.266250   -1.713018
H      -2.648303   -2.383210   -1.209386
H      -1.688039   -2.219500   -2.718859
H       1.207079   -0.917903   -1.749129
H      -0.560868    1.248240   -2.207299
H       0.046168    0.083742   -4.072659
