22

C      -0.077509    1.655376   -0.053887
C       0.018074    0.133980   -0.011885
C       0.940451   -0.600607   -1.101059
C       1.845171   -1.006390    0.091199
C       2.449926   -1.972436    1.163427
N       2.078539   -0.708350    2.007838
C       2.656563    0.098756    0.834424
C       4.163624    0.249928    0.718778
C       0.769979   -0.747741    1.096784
H       0.886734    2.148359   -0.197548
H      -0.721781    1.963500   -0.885541
H      -0.521086    2.043306    0.868912
H      -1.003741   -0.256101   -0.049590
H       0.414317   -1.428212   -1.583893
H       1.394247    0.031520   -1.870789
H       1.856690   -2.853962    1.418221
H       3.516378   -2.202034    1.185476
H       2.212769    1.094142    0.826108
H       4.702344   -0.690483    0.586117
H       4.402710    0.890137   -0.137384
H       4.554786    0.739297    1.617680
H       0.129446   -1.568567    1.427822
