17

C       0.085113    1.555120    0.021196
C       0.018599    0.024747   -0.005021
C       0.672170   -0.613157   -1.240751
N       2.107080   -0.321420   -1.411619
C       1.692720   -1.607390   -0.811555
C       1.717889   -1.609879    0.705809
O       2.117184   -0.372743    1.298008
C       0.716790   -0.641863    1.185326
H       1.128573    1.876285   -0.000601
H      -0.428925    1.985492   -0.844260
H      -0.385581    1.956272    0.924584
H      -1.030592   -0.300384    0.015632
H       0.065314   -0.760101   -2.129705
H       2.362583   -0.480722   -2.383869
H       1.873008   -2.534255   -1.344943
H       2.000309   -2.509283    1.246352
H       0.189677   -0.738967    2.133169
