15

N      -0.089512    1.330384   -0.204528
C      -0.031978    0.077203    0.011408
C      -1.294760   -0.747315    0.108517
C      -1.132243   -1.900616    1.097940
N       0.065211   -2.652172    0.748410
C       1.251713   -2.033156    0.453477
O       2.330498   -2.589758    0.440356
N       1.134301   -0.672413    0.145953
H       0.842473    1.745130   -0.276851
H      -2.116160   -0.087159    0.387591
H      -1.510909   -1.157502   -0.885427
H      -1.080805   -1.512838    2.126674
H      -1.993125   -2.571800    1.042265
H       0.187218   -3.581702    1.118710
H       2.024993   -0.228004   -0.025263
