20

C      -0.091075    1.229050   -0.139271
O       0.065385   -0.173308    0.076061
C       0.715616   -0.518886    1.192636
N       1.170794    0.330941    2.018254
O       0.757427   -1.868200    1.211126
C       1.408535   -2.485424    2.318109
C       1.327904   -3.990618    2.117071
C       1.996550   -4.760030    3.249989
O       1.863166   -6.141172    2.961514
H       0.882092    1.722354   -0.208180
H      -0.635050    1.320045   -1.080227
H      -0.655581    1.686787    0.677391
H       1.635669   -0.101268    2.809256
H       2.453953   -2.149589    2.366396
H       0.913545   -2.185444    3.252468
H       0.278430   -4.293745    2.046499
H       1.805527   -4.258498    1.169245
H       3.057042   -4.467767    3.327084
H       1.519031   -4.503747    4.210359
H       2.282442   -6.639468    3.668953
