21

C       0.023208    1.520956   -0.020539
C       1.292311    0.701978    0.031452
C      -0.044460    0.017549   -0.037868
C      -0.586323   -0.772205    1.158984
O      -1.624191   -1.592068    0.635120
C      -1.201084   -1.970130   -0.654153
C      -0.687939   -3.376541   -0.845742
C      -2.051216   -2.953817   -1.376196
C      -0.528094   -0.752433   -1.274708
H      -0.288365    2.039536    0.881019
H      -0.204595    2.051756   -0.939810
H       1.926970    0.682035   -0.848778
H       1.837257    0.664104    0.970328
H       0.206059   -1.395309    1.604871
H      -1.017709   -0.143384    1.943104
H       0.112112   -3.552429   -1.557562
H      -0.678334   -4.020502    0.026556
H      -2.925340   -3.324037   -0.852314
H      -2.179177   -2.836049   -2.447163
H      -1.253622   -0.159734   -1.843174
H       0.285577   -1.028976   -1.950861
