16

C      -0.011115   -3.805213   -0.073168
C       0.006784   -2.598105   -0.030579
C       0.026988   -1.239744    0.017292
C       0.042167   -0.028423    0.064904
C       0.036530    1.400644    0.095945
C       0.513310    2.201445    1.259362
C       1.647684    1.511143    2.008969
C       2.385945    1.478504    0.644528
N       1.272326    2.232456   -0.044826
H      -0.028739   -4.866081   -0.111098
H      -0.777806    1.855375   -0.463728
H      -0.062073    3.053287    1.609828
H       2.132042    2.162328    2.738096
H       1.405624    0.556998    2.483174
H       3.291516    2.086207    0.617667
H       2.590846    0.498810    0.206665
