19

O      -0.866756    1.078858    0.380678
C       0.249723    0.724978    0.106299
C       1.444478    1.661421    0.025404
C       1.345508    2.862336    0.974905
C       2.703746    3.532894    1.171841
C       3.714071    2.910773    2.108912
C       3.950804    2.866180    0.624762
C       3.785856    1.554185   -0.114651
O       2.597611    0.873861    0.263591
H       0.500874   -0.333010   -0.127593
H       1.472651    2.027898   -1.020340
H       0.623044    3.571048    0.561481
H       0.935035    2.530568    1.934613
H       2.687357    4.617455    1.145704
H       4.332711    3.564918    2.713052
H       3.426795    1.982217    2.592273
H       4.725990    3.509631    0.218993
H       3.773950    1.735945   -1.203207
H       4.609098    0.865974    0.103561
