17

C      -0.340395    1.506678    0.036742
C       0.082937    0.024638   -0.021667
C       0.833737   -0.300848   -1.282045
C       2.038360   -0.859091   -1.305886
C       2.787322   -1.246462   -0.070203
N       2.053562   -0.926884    1.139397
C       0.825056   -0.346295    1.263793
O       0.335704   -0.130992    2.359302
H       0.534392    2.163481   -0.004439
H      -0.989799    1.753510   -0.808750
H      -0.876757    1.698580    0.967460
H      -0.841755   -0.570670    0.004235
H       0.338344   -0.043482   -2.215805
H       2.541081   -1.067514   -2.245470
H       3.010217   -2.325027   -0.099044
H       3.766123   -0.741037   -0.059245
H       2.483200   -1.147806    2.026394
