18

O       0.282204    0.119044    0.260256
C       0.388267    1.298851    0.411106
O       0.661753    2.143677   -0.598199
C       0.809697    3.537681   -0.293610
C       2.270696    3.962767   -0.413366
C       2.446657    5.449773   -0.192692
C       2.564105    6.008352    1.206451
C       3.762592    6.001589    0.290511
H       0.267361    1.818199    1.383188
H       0.184477    4.077967   -1.011296
H       0.424113    3.746866    0.712452
H       2.866198    3.403609    0.319295
H       2.639987    3.673260   -1.404317
H       1.909505    6.073258   -0.903818
H       2.088462    6.956919    1.428915
H       2.560226    5.306592    2.034670
H       4.559113    5.296294    0.503841
H       4.105037    6.945812   -0.117593
