16

O      -0.007783    1.451340    0.047083
C       0.014680    0.037227   -0.009805
C      -1.398249   -0.485939   -0.002011
C      -2.514719    0.343650    0.052392
N      -3.784209   -0.083577    0.061265
C      -3.974686   -1.401800    0.013803
C      -2.942903   -2.333317   -0.043043
C      -1.632761   -1.864591   -0.050936
O      -0.547619   -2.682186   -0.104435
H       0.900780    1.763562    0.040168
H       0.527851   -0.322399   -0.916666
H       0.563649   -0.392693    0.843918
H      -2.363017    1.416585    0.091411
H      -5.007605   -1.742581    0.021107
H      -3.155475   -3.398010   -0.080209
H      -0.839930   -3.599642   -0.134824
