17

N      -0.035153    1.489926    0.029526
C       1.448103    1.447127    0.016784
C       1.983294    1.282422    1.443925
O       0.982131    1.360317    2.478366
C       1.461770    0.070700    2.089428
C       0.702262   -0.803247    1.098178
N       1.700573   -1.189110    0.046923
C       1.327475    0.007187   -0.706307
C      -0.055444    0.030733   -0.037990
H      -0.411932    1.889189    0.885007
H       1.931828    2.258126   -0.532363
H       2.945824    1.709612    1.712384
H       2.023522   -0.449792    2.865053
H       0.176805   -1.644907    1.554948
H       2.665251   -1.243933    0.372335
H       1.512777    0.008182   -1.780099
H      -0.951150   -0.449701   -0.433217
