25

C       0.002030    1.544349   -0.229339
C      -0.010562    0.036684   -0.055107
C      -1.251157   -0.627487   -0.624958
C       1.295944   -0.716180   -0.165257
C       0.603658   -0.601661    1.178459
C       1.213842    0.169000    2.316769
C       0.317959    0.586885    3.521581
C       1.503862    0.263517    4.468752
C       2.127213   -0.586855    3.329558
H       0.919310    2.000085    0.151209
H      -0.077872    1.807340   -1.290951
H      -0.844154    2.011649    0.288751
H      -1.346219   -0.430361   -1.699848
H      -1.224110   -1.713103   -0.487521
H      -2.160016   -0.252144   -0.139070
H       1.304619   -1.678183   -0.667830
H       2.202644   -0.135509   -0.308660
H       0.093854   -1.505820    1.509869
H       1.750249    1.046705    1.941903
H      -0.089476    1.601245    3.528526
H      -0.508387   -0.118970    3.657617
H       2.103789    1.152782    4.684025
H       1.279315   -0.237466    5.413331
H       1.836010   -1.639647    3.409313
H       3.208610   -0.537938    3.178533
