18

C      -0.001515    1.347875   -0.024378
O      -0.037452   -0.068219    0.003945
C      -1.311900   -0.594111   -0.017812
C      -2.287952   -0.489763   -1.225895
C      -2.901894   -1.746068   -0.590977
C      -1.541341   -2.152486    0.051600
C      -2.198310   -2.006381    1.446910
C      -2.214821   -0.539175    1.249099
N      -3.388986   -1.360586    0.807213
H       1.050398    1.639642   -0.003683
H      -0.465234    1.745395   -0.937975
H      -0.509550    1.787820    0.845298
H      -2.917960    0.396149   -1.341023
H      -1.774965   -0.728475   -2.162841
H      -3.586825   -2.411086   -1.112298
H      -0.828034   -2.881370   -0.321727
H      -2.262782   -2.627697    2.331425
H      -2.393413    0.269529    1.946766
