17

C      -0.066839   -1.291049    0.020792
C      -0.067617   -0.088392    0.020270
C      -0.053385    1.372237    0.019722
C      -0.477205    2.008842    1.414137
N       0.783085    2.277244    2.152669
C       1.665787    2.232310    1.243698
C       3.145030    2.023733    0.984853
C       2.642723    1.333026   -0.332122
N       1.305170    1.947170   -0.072987
H      -0.080264   -2.353235    0.023110
H      -0.690927    1.742511   -0.788397
H      -1.021881    2.944432    1.239219
H      -1.120907    1.337519    1.985379
H       3.711932    2.940686    0.815297
H       3.662798    1.393807    1.707951
H       3.096309    1.647789   -1.273863
H       2.633272    0.241230   -0.258492
