15

C       0.114701   -0.642481    0.789223
C      -0.026693    0.343602    0.115243
C      -0.134011    1.558512   -0.702523
N       1.100992    2.339583   -0.829053
C       1.610764    2.813405    0.460791
C       2.852403    3.554628    0.295889
C       3.894155    4.151278    0.164957
C       5.070031    4.828989    0.016290
N       6.071360    5.404215   -0.109787
H       0.222116   -1.519264    1.379417
H      -0.464155    1.294657   -1.713111
H      -0.909856    2.213931   -0.286767
H       1.813232    1.769921   -1.275713
H       0.856065    3.478735    0.902718
H       1.776285    2.003350    1.192920
