18

C       0.222473    1.309007   -0.165024
N      -0.208397   -0.023091    0.204808
C       0.556790   -0.694501    0.938871
O       0.201027   -1.946540    1.325708
C       1.135207   -2.639758    2.116573
C       0.746513   -4.095492    2.479309
C       2.191652   -4.574711    2.137342
C       2.396340   -3.224823    1.429310
O       3.124526   -2.815958    0.574936
H       1.201297    1.596649    0.251890
H       0.278598    1.385263   -1.256695
H      -0.522796    2.040758    0.166996
H       1.531151   -0.359191    1.321612
H       1.418791   -2.058740    3.006750
H       0.394124   -4.261583    3.496728
H       0.010238   -4.475529    1.768957
H       2.838275   -4.676568    3.014568
H       2.305968   -5.463163    1.513448
