19

C      -0.064446    1.565169    0.028843
C       0.107557    0.067752    0.100808
O      -1.050570   -0.617033   -0.347570
C       1.356385   -0.738616   -0.213950
O       1.302765   -1.707769   -1.214757
C       2.624908   -0.085384    0.321649
C       2.004591   -0.091843    1.763141
C       0.743177   -0.736414    1.214291
O       0.009287   -1.641669    1.935566
H       0.807990    2.089998    0.426723
H      -0.217224    1.889132   -1.006331
H      -0.939972    1.875757    0.608419
H      -0.746568   -1.272823   -0.993197
H       1.532020   -1.289814   -2.055079
H       3.484667   -0.755013    0.247623
H       2.896519    0.891190   -0.093340
H       2.543661   -0.765121    2.432763
H       1.882121    0.877251    2.256553
H      -0.845782   -1.697048    1.480425
