15

C      -0.049784   -1.214262    0.008723
C      -0.029115   -0.011196   -0.004366
C      -0.016864    1.404046   -0.016269
C      -0.732973    2.473534    0.798829
C       0.615736    3.069360    1.131619
N       1.262139    2.241592    0.000568
C       1.069021    3.101274   -1.148327
N      -0.120103    3.230504   -1.585144
C      -0.916025    2.375054   -0.728813
H      -0.062113   -2.276093    0.016358
H      -1.583570    2.359880    1.458544
H       0.761390    4.150834    1.040314
H       1.006940    2.717533    2.087416
H       1.919074    3.657018   -1.530927
H      -1.890900    2.069266   -1.084238
