17

C       0.308301    1.328259   -0.109503
O      -0.152573    0.013990    0.166733
C       0.561971   -0.611106    1.189648
C       0.166349   -2.082914    1.405308
O       1.535388   -2.507908    1.125597
C       1.925338   -1.206005    0.842376
N       3.011050   -0.747617    0.426099
C       4.111702   -1.661047    0.146287
H       1.358869    1.326138   -0.421795
H      -0.315905    1.717208   -0.916582
H       0.201723    1.978608    0.772336
H       0.577852    0.000407    2.104341
H      -0.141144   -2.376280    2.411005
H      -0.529703   -2.459280    0.652620
H       3.850823   -2.720293    0.251197
H       4.470487   -1.483047   -0.872911
H       4.944280   -1.436195    0.822234
