18

C      -0.011759    1.506053    0.001337
C      -0.014641    0.051058   -0.009050
C      -0.016408   -1.154687   -0.018582
C      -0.022719   -2.586612   -0.015189
C       0.409590   -3.418067   -1.266494
C      -0.469988   -4.528140   -0.702608
C      -1.262620   -3.585517    0.116297
N      -0.365671   -4.550485    0.801166
C       0.576759   -3.437636    1.131566
H       0.587298    1.897667    0.831036
H       0.403061    1.911638   -0.928208
H      -1.027186    1.903071    0.111208
H      -0.018977   -3.006940   -2.183038
H       1.482664   -3.592870   -1.397362
H      -0.777520   -5.453716   -1.170131
H      -2.316730   -3.456511    0.322826
H       1.643508   -3.684523    1.078167
H       0.326983   -3.050918    2.121757
