20

C       0.003902    1.500768    0.196516
C       1.401814    2.114504    0.001974
O       2.202552    1.480412   -0.975925
C       1.907120    1.763111   -2.329570
C       0.673552    1.034908   -2.892398
C       0.460341   -0.385007   -2.328015
O      -0.472983   -0.451582   -1.264601
C      -0.048759   -0.030934    0.019707
H      -0.327030    1.760483    1.209597
H      -0.731516    1.939376   -0.485062
H       1.321597    3.193424   -0.208567
H       1.971246    2.005928    0.931781
H       1.814210    2.850619   -2.482927
H       2.796816    1.432218   -2.876863
H      -0.246799    1.601958   -2.721608
H       0.798341    0.977609   -3.980718
H       0.029327   -1.021596   -3.106971
H       1.422106   -0.826562   -2.028176
H       0.922959   -0.479553    0.273443
H      -0.796667   -0.447073    0.701801
