22

C      -0.116091    1.493713   -0.069701
C      -0.086233   -0.028820   -0.137928
C       0.947972   -0.628750    0.818240
O      -1.408694   -0.471057    0.165967
C      -1.703265   -1.809625   -0.184974
C      -3.201707   -2.005458   -0.002164
N      -3.950987   -1.065124   -0.813912
C      -4.946637   -1.433842   -1.658900
O      -5.356081   -2.566258   -1.812312
H       0.861533    1.911287   -0.327124
H      -0.858757    1.895260   -0.764570
H      -0.377475    1.823453    0.940851
H       0.157905   -0.339175   -1.168031
H       0.976892   -1.720129    0.754651
H       1.948863   -0.257644    0.576610
H       0.715347   -0.349847    1.851024
H      -1.420235   -2.001364   -1.232553
H      -1.161104   -2.526312    0.449631
H      -3.501618   -3.010266   -0.306671
H      -3.453260   -1.879385    1.058740
H      -3.655169   -0.102300   -0.782103
H      -5.359290   -0.563814   -2.208002
