16

O       0.058476    1.391005   -0.110538
C       0.048350   -0.022251   -0.047128
C       0.688317   -0.545869    1.233841
C      -0.161891   -1.276091    1.972089
C       0.139806   -1.902139    3.262210
O      -0.649272   -2.576051    3.886993
C      -1.500077   -1.349117    1.302174
N      -2.110991    0.004951    1.151942
C      -1.369917   -0.607965    0.027686
H      -0.597682    1.671826    0.544257
H       0.586569   -0.372977   -0.934997
H       1.699412   -0.274226    1.518210
H       1.172101   -1.723851    3.635475
H      -2.146159   -2.206110    1.443197
H      -3.110391   -0.096050    0.986556
H      -1.901112   -0.881216   -0.876214
