20

C      -0.427760    1.431284   -0.094645
C      -0.070643   -0.034612    0.021186
C       1.291931   -0.585596   -0.315887
O       2.354846    0.340891   -0.438066
C       2.626621    0.926781    0.773568
N       3.485649    1.833712    0.949513
C       1.735975    0.328078    1.850109
C       0.814789   -0.633460    1.113039
C       0.402792   -1.911426    1.804283
H       0.411893    2.090249    0.136679
H      -0.754752    1.665772   -1.113036
H      -1.247711    1.685627    0.585396
H      -0.878159   -0.703778   -0.270182
H       1.430846   -1.452471   -0.951510
H       3.948332    2.065059    0.068733
H       2.356216   -0.208518    2.575871
H       1.222396    1.123925    2.396475
H      -0.256147   -1.707407    2.656172
H      -0.138626   -2.574633    1.122363
H       1.274815   -2.458130    2.181649
