20

C      -0.127943    1.488956   -0.077560
C      -0.077660    0.001932   -0.028371
C      -0.052839   -1.110625   -1.038198
C       1.245377   -1.602127   -0.429463
N       0.906826   -0.837993    0.837849
C      -0.302937   -1.610201    1.327067
C      -1.080970   -1.111829    0.123157
C      -2.551723   -1.089542   -0.127404
O      -2.972134   -2.399269   -0.496629
H       0.823519    1.903416   -0.428700
H      -0.913456    1.824251   -0.763043
H      -0.334106    1.914866    0.910604
H      -0.385204   -1.094646   -2.069323
H       1.407900   -2.675965   -0.282699
H       2.129429   -1.158645   -0.895851
H      -0.133588   -2.684106    1.461745
H      -0.658457   -1.174580    2.266015
H      -3.076785   -0.750509    0.780479
H      -2.778735   -0.359724   -0.922995
H      -3.932623   -2.398268   -0.552456
