23

C       0.197709    1.740495   -0.047115
C      -0.006981    0.213680   -0.075968
C       0.672846   -0.448616   -1.242698
C       1.898921   -0.982894   -1.243568
C       2.285823   -1.564635   -2.582169
C       1.190525   -1.009209   -3.527771
C       0.042507   -0.604220   -2.595408
C      -1.334722   -1.229881   -2.738555
C      -1.119836    0.218898   -3.090915
H       1.261280    1.982075    0.039603
H      -0.173983    2.213686   -0.960757
H      -0.326000    2.188646    0.803513
H       0.377614   -0.213372    0.856840
H      -1.082734   -0.004308   -0.091420
H       2.543469   -1.040264   -0.372174
H       3.294294   -1.277059   -2.900463
H       2.277411   -2.663747   -2.548052
H       1.570617   -0.119553   -4.043523
H       0.882789   -1.723862   -4.296387
H      -1.479484   -1.941894   -3.544643
H      -1.895810   -1.458764   -1.838144
H      -1.547554    0.968344   -2.433462
H      -1.123348    0.498596   -4.139992
