21

C       0.211213    1.402821   -0.205812
C      -0.078798   -0.077466    0.043535
C      -1.586889   -0.370017    0.259008
C      -1.645220   -1.087179    1.582454
C      -0.446818   -1.221250    2.148258
C       0.662542   -0.655458    1.302056
C       1.648852   -1.702558    0.719415
C       1.691059   -1.326110   -0.766179
O       0.386031   -0.858918   -1.067847
H       1.283334    1.578298   -0.342539
H      -0.308514    1.745898   -1.105723
H      -0.124562    2.012028    0.640198
H      -2.184566    0.550316    0.267301
H      -1.962774   -0.982407   -0.568664
H      -2.577088   -1.447555    2.005903
H      -0.255617   -1.705948    3.100207
H       1.218730    0.127728    1.830367
H       2.633959   -1.675630    1.192302
H       1.241399   -2.710870    0.837924
H       2.445991   -0.543838   -0.951015
H       1.907782   -2.166461   -1.431559
