16

C      -0.064144    1.523231   -0.124624
C      -0.018936    0.031463    0.069252
O       1.233377   -0.620852   -0.108567
C       0.671585   -0.615853    1.210392
C       1.347403    0.021197    2.364330
C       1.191394   -0.794953    3.416068
N       0.465744   -1.948343    3.077463
C       0.138760   -1.951319    1.732477
O      -0.451891   -2.811469    1.125447
H       0.804200    2.010470    0.324323
H      -0.076087    1.762238   -1.193081
H      -0.973282    1.938335    0.322502
H      -0.858447   -0.533774   -0.339768
H       1.863213    0.967336    2.355232
H       1.532007   -0.666170    4.433354
H       0.291344   -2.730579    3.685507
