14

C       0.218614    1.411511   -0.071856
C      -0.357853    0.017398    0.187645
N       0.256976   -0.649506    1.325125
C       1.171053   -1.652175    1.184363
O       1.526289   -2.114355    0.114904
C       1.691749   -2.140182    2.457663
C       2.142648   -2.562604    3.489097
H       1.288868    1.351696   -0.288145
H      -0.281132    1.875296   -0.928126
H       0.080303    2.068003    0.793950
H      -1.439186    0.077009    0.357553
H      -0.189619   -0.632736   -0.673174
H       0.067644   -0.313475    2.256026
H       2.549775   -2.946827    4.392444
