21

C      -0.051651    1.591290   -0.069532
C       0.074279    0.089314   -0.015923
C       0.482902   -0.647712   -1.282720
O       0.917191   -1.940753   -0.874535
C       1.479961   -1.826076    0.427733
C       0.736275   -0.692483    1.117185
C       1.344679   -0.068530    2.347144
C      -0.769534   -0.740351    0.916994
O      -1.594209   -0.021216    1.790713
H       0.903710    2.059225   -0.332863
H      -0.787214    1.892195   -0.824659
H      -0.385756    1.995263    0.887262
H      -0.334383   -0.790459   -1.998884
H       1.292252   -0.094034   -1.788699
H       1.365065   -2.800513    0.917436
H       2.557703   -1.591831    0.380833
H       2.314568    0.390643    2.124892
H       0.691141    0.701480    2.762975
H       1.511279   -0.819954    3.129115
H      -1.205743   -1.662059    0.527722
H      -1.679230   -0.528026    2.605033
