11

O       0.087774    0.222491   -0.810960
C      -0.049967    1.216748   -0.192196
C      -1.183982    2.119261    0.287361
C      -0.022200    2.954667    0.911185
O       0.948088    1.998046    0.384013
C       0.171621    4.287411    0.336097
N       0.296146    5.332965   -0.136706
C       0.005770    2.995733    2.374754
N      -0.002059    3.010493    3.528855
H      -1.740519    2.621180   -0.503821
H      -1.863458    1.663707    1.007367
