18

C       0.179981    1.440166    0.469259
C       0.095315    0.023443    0.145837
C       0.021321   -1.146247   -0.127882
C      -0.082381   -2.568017   -0.441031
C      -1.458356   -3.163414   -0.116495
C      -1.500361   -4.544160    0.456203
N      -1.809910   -3.387470    1.303003
C      -2.534596   -2.708892   -0.962959
C      -3.405516   -2.341150   -1.704857
H       0.949943    1.632795    1.224548
H       0.426822    2.036652   -0.415907
H      -0.771951    1.811741    0.864073
H       0.132003   -2.736671   -1.503765
H       0.677208   -3.129308    0.119331
H      -2.346966   -5.185995    0.233825
H      -0.552071   -5.061245    0.583016
H      -1.010020   -3.142231    1.883009
H      -4.184602   -2.008898   -2.345155
