23

C       0.034428    1.521108    0.011845
C       1.320518    0.724605   -0.017312
C      -0.008614    0.019179    0.007233
C      -0.453467   -0.813030    1.231312
C      -1.161337   -2.021055    0.572080
C      -2.501507   -1.536922   -0.029887
C      -2.050357   -0.674851   -1.254247
C      -0.507268   -0.777209   -1.202172
C      -0.307754   -2.224565   -0.700385
H      -0.222907    2.041508    0.929260
H      -0.256245    2.048748   -0.891744
H       1.894000    0.717243   -0.939261
H       1.926729    0.702403    0.883326
H       0.409141   -1.139226    1.823082
H      -1.121443   -0.260335    1.900713
H      -1.260680   -2.885272    1.231986
H      -3.112704   -2.386534   -0.349724
H      -3.092792   -0.966831    0.692869
H      -2.435485   -1.087921   -2.191815
H      -2.391598    0.361893   -1.190011
H      -0.011613   -0.509517   -2.138233
H       0.738251   -2.465454   -0.488071
H      -0.717816   -2.979896   -1.378508
