16

N      -0.055374    1.290712   -0.236210
C      -0.011201    0.050396    0.033707
O       1.175391   -0.616342    0.165874
C       1.160589   -1.854647    0.878729
C       0.082879   -2.824075    0.367823
C      -0.043501   -3.977005    1.355317
O       0.286863   -5.109488    1.126536
C      -1.220655   -2.073751    0.243190
C      -1.240970   -0.744189    0.129164
H       0.892074    1.671724   -0.286265
H       2.159923   -2.275704    0.755077
H       0.997905   -1.653504    1.947351
H       0.379463   -3.256539   -0.595361
H      -0.470858   -3.684796    2.342511
H      -2.144876   -2.644607    0.234383
H      -2.160324   -0.180101    0.030952
