21

C      -0.028979    1.552765   -0.287195
C      -0.029924    0.077402    0.121128
C      -1.413897   -0.572140    0.020370
C      -1.414380   -2.052175    0.424156
C      -2.784636   -2.674918    0.307128
N      -3.211830   -3.093904   -1.029135
C      -2.999673   -4.128029    0.005801
C      -1.895134   -5.034528   -0.198724
N      -1.014303   -5.771853   -0.330219
H       0.971417    1.988673   -0.205127
H      -0.362169    1.676673   -1.323532
H      -0.701206    2.140621    0.347976
H       0.675139   -0.479439   -0.509533
H       0.342286   -0.019774    1.149691
H      -2.122397   -0.017937    0.652558
H      -1.787219   -0.487031   -1.008226
H      -0.715285   -2.610679   -0.207508
H      -1.063777   -2.160181    1.458906
H      -3.545739   -2.240620    0.955780
H      -4.209673   -2.955493   -1.165015
H      -3.870842   -4.602387    0.449712
