19

C      -0.362165    1.412321    0.012547
C       0.033630   -0.054592   -0.065376
C       1.353830   -0.389685   -0.793965
O       1.930351   -0.940231    0.412974
C       0.730669   -0.685534    1.160297
C       0.953865   -0.003023    2.555060
C       0.316430   -1.237350    3.203135
O      -0.991246   -1.378525    2.627071
C       0.133516   -1.895520    1.901519
H       0.472927    2.032301    0.356380
H      -0.671764    1.784152   -0.970231
H      -1.198220    1.555552    0.704082
H      -0.814266   -0.655419   -0.405691
H       1.292888   -1.137065   -1.593769
H       1.923539    0.475735   -1.155298
H       2.027443    0.078799    2.743503
H       0.460128    0.951112    2.752641
H       0.470054   -1.658686    4.189233
H       0.123143   -2.940183    1.611727
