12

C      -0.024382    1.538492    0.019373
C      -0.002851    0.039549   -0.016072
N      -0.064951   -0.538879   -1.168151
O      -0.043673   -1.916491   -1.174548
C       0.040350   -2.695924   -0.012339
O       0.050524   -3.880533   -0.146715
N       0.106105   -2.032226    1.217839
C       0.084763   -0.748381    1.199046
H       0.882986    1.928228    0.493474
H      -0.092373    1.933878   -0.994762
H      -0.879435    1.900362    0.600697
H       0.135835   -0.226669    2.156615
