19

C       0.021660    1.485150   -0.055706
C       0.024541   -0.017571    0.058150
C      -1.313274   -0.757880    0.425457
C      -0.495283   -1.667222    1.339507
C       0.714972   -0.736702    1.247786
C       0.789261   -2.100009    0.644922
O       1.580574   -3.057854    1.270966
C       0.877552   -1.949253   -0.873904
O       0.588065   -0.576590   -1.134065
H       1.039720    1.857925   -0.203618
H      -0.584513    1.798454   -0.911491
H      -0.391266    1.941211    0.848115
H      -1.985377   -0.112770    0.998869
H      -1.862425   -1.200074   -0.412647
H      -0.846299   -2.211078    2.209275
H       1.386679   -0.348800    2.001461
H       1.122339   -3.903700    1.225589
H       1.893470   -2.180922   -1.214683
H       0.173788   -2.599918   -1.413860
