16

O      -0.138720    1.096423   -0.494151
C      -0.140030   -0.243988   -0.116963
C      -0.416785   -0.563939    1.330908
O      -0.785138    0.539769    2.124331
C      -1.431763   -0.950038    0.280569
C      -2.776124   -0.286266    0.239775
C      -3.170411    0.658562   -0.818664
O      -3.627343   -0.692793   -0.835744
H      -0.502684    1.586695    0.256488
H       0.605203   -0.810644   -0.665277
H       0.132217   -1.343594    1.854690
H       0.016507    0.897053    2.522970
H      -1.474656   -2.012324    0.054621
H      -3.290080   -0.211348    1.198100
H      -3.935099    1.406583   -0.610713
H      -2.446828    0.921189   -1.584939
