17

C      -0.335645    1.547362   -0.090840
O      -0.314755    0.305653    0.582799
C      -1.253993   -0.601890    0.105783
C      -1.019974   -1.327034   -1.249444
C      -1.500572   -2.638526   -0.574372
C      -1.245504   -1.985256    0.828264
C       0.043201   -2.343585    1.401558
N       1.057563   -2.665022    1.853405
H       0.423007    2.177981    0.376608
H      -0.098782    1.437855   -1.158886
H      -1.316659    2.038895   -0.000143
H      -2.270255   -0.178129    0.148421
H      -1.567162   -0.972807   -2.124641
H       0.049041   -1.363568   -1.476007
H      -2.566133   -2.824401   -0.723325
H      -0.944674   -3.550291   -0.790182
H      -2.020531   -2.129297    1.584472
