20

C      -0.267575    1.463825    0.015393
C      -0.024378   -0.023971    0.017912
C      -0.792420   -0.946793    0.944595
C       0.699963   -0.752009    1.121966
C       1.643282   -1.759647    0.483195
C       1.162511   -1.878478   -0.979273
N       0.411886   -0.642346   -1.220369
C       0.090720   -0.254004   -2.478806
O       0.431153   -0.844702   -3.487088
H       0.590398    2.003413   -0.399096
H      -1.155533    1.737618   -0.563929
H      -0.428149    1.811174    1.039775
H      -1.442504   -0.484644    1.679807
H      -1.160973   -1.889045    0.552661
H       1.043242   -0.207576    1.994754
H       2.664951   -1.367601    0.519379
H       1.646636   -2.731456    0.985257
H       1.971778   -1.962373   -1.706829
H       0.513444   -2.750895   -1.122518
H      -0.505869    0.676218   -2.502616
