19

C      -0.322106    1.559607   -0.047596
C      -0.199039    0.109043   -0.048292
C      -0.091037   -1.091024   -0.043040
C       0.048782   -2.523417   -0.063278
C       1.140577   -3.063117   -0.997033
C       2.491996   -2.686732   -0.595615
C       3.603653   -2.382149   -0.256121
C      -0.219289   -3.293917    1.217916
C      -1.208702   -3.367019    0.089315
H       0.508574    2.024475   -0.590192
H      -1.252665    1.886031   -0.525710
H      -0.314354    1.961175    0.972002
H       1.064413   -4.157180   -1.030807
H       0.946867   -2.707344   -2.016469
H       4.585345   -2.108279    0.040935
H       0.408291   -4.156992    1.412739
H      -0.484508   -2.720286    2.097462
H      -2.148566   -2.838885    0.194759
H      -1.266925   -4.283083   -0.489339
