17

C      -0.123529    1.556053    0.039999
C       1.404260    1.520108   -0.231457
N       1.433152    0.156217    0.323082
C      -0.033635    0.028750    0.300944
C       2.296450   -0.820668   -0.107911
N       3.469931   -0.534803   -0.681881
N       3.991950   -1.746824   -0.903874
N       3.264659   -2.784473   -0.536767
C       2.168597   -2.227312   -0.020623
H      -0.392731    2.130112    0.927777
H      -0.754783    1.864733   -0.793005
H       1.669910    1.552179   -1.296186
H       2.029081    2.238834    0.306742
H      -0.471279   -0.346312    1.232051
H      -0.402593   -0.582589   -0.535088
H       4.895964   -1.856744   -1.330882
H       1.368844   -2.828903    0.378625
