17

O      -0.095528    1.465098   -0.030249
C       0.053537    0.070673    0.042381
C      -0.013489   -0.634117    1.419760
C      -1.548463   -0.209658    1.482716
C      -1.276161   -0.747286    0.045217
O      -1.907133   -1.218976   -1.101808
C      -1.058763   -2.333753   -1.482881
O      -0.032821   -2.546756   -0.490961
C      -0.550008   -1.902692    0.664553
H       0.773016    1.865627    0.070548
H       0.827880   -0.296508   -0.635689
H       0.697281   -0.583911    2.241935
H      -2.194804   -0.817653    2.118532
H      -1.728853    0.856626    1.589812
H      -1.700043   -3.220088   -1.573362
H      -0.559780   -2.118832   -2.433590
H      -1.127229   -2.594907    1.285898
