19

C      -0.006540    1.572622   -0.053019
C       1.523106    1.539636    0.056071
O       2.033731    0.764754   -1.047405
C       1.546772    0.067830    0.096512
C       2.342002   -0.950031    0.841234
C       1.689802   -1.188713    2.221414
C       0.179443   -1.151246    2.199201
C      -0.568241   -0.631780    1.221708
C       0.015558   -0.009267   -0.007390
H      -0.488379    2.004387    0.827460
H      -0.406046    2.032459   -0.960079
H       2.196374    2.272855    0.486186
H       2.340563   -1.886166    0.267872
H       3.384972   -0.635874    0.944309
H       2.029399   -2.148069    2.629785
H       2.047664   -0.428153    2.930569
H      -0.313973   -1.570119    3.073702
H      -1.652661   -0.641466    1.311278
H      -0.354442   -0.484782   -0.922331
