19

C      -0.026246   -1.249154   -0.019128
C      -0.013162   -0.048906    0.032079
C       0.007024    1.407822    0.069402
C       1.420388    2.000880    0.028261
C       1.424135    3.527765   -0.112757
C       2.857274    4.038952    0.062485
O       3.418465    3.545334    1.270792
C       3.376519    2.143887    1.306907
O       2.069987    1.635578    1.241852
H      -0.039391   -2.310142   -0.053281
H      -0.561862    1.807884   -0.779372
H      -0.486221    1.768020    0.980459
H       1.970536    1.558432   -0.820015
H       1.030004    3.826623   -1.090706
H       0.784718    3.962632    0.663682
H       3.476343    3.722296   -0.794717
H       2.894233    5.129534    0.122079
H       3.979241    1.729797    0.474973
H       3.792722    1.833518    2.267001
