16

O      -0.302220    0.013139   -0.428167
C       0.009015    1.112814   -0.052076
C       1.357089    1.758104   -0.287472
C       1.215191    3.122554   -0.998626
C       2.528364    3.828370   -1.148032
N       2.775418    4.907000   -0.440896
O       4.062569    5.306064   -0.788609
C       4.548555    4.450973   -1.698244
C       3.638195    3.486427   -1.978302
H      -0.710109    1.750573    0.514301
H       1.827366    1.920983    0.691847
H       1.982153    1.065616   -0.857488
H       0.767258    2.971124   -1.987413
H       0.541147    3.771000   -0.430333
H       5.546419    4.658319   -2.052919
H       3.731121    2.663148   -2.666825
