19

C       0.237677    1.417446    0.006825
C       0.009760   -0.096733    0.000687
C      -1.469796   -0.444754    0.013866
O      -1.583384   -1.878440    0.006980
C      -2.856224   -2.352892    0.016467
O      -3.847271   -1.677862    0.029823
N      -2.778222   -3.739064    0.008069
C      -3.815827   -4.663133    0.013348
N      -5.046390   -4.363901    0.027205
H       1.305814    1.651184   -0.002658
H      -0.215295    1.892608   -0.869933
H      -0.197424    1.882747    0.897811
H       0.472673   -0.545698   -0.885752
H       0.490690   -0.555522    0.872380
H      -1.971590   -0.049372    0.903683
H      -1.989660   -0.039449   -0.860975
H      -1.840853   -4.107322   -0.003014
H      -3.407131   -5.681749    0.003670
H      -5.603723   -5.216622    0.028034
