20

C       0.223342    1.090824   -0.390944
O      -0.101399    0.000836    0.445887
C      -1.306521   -0.632783    0.147441
C      -2.455157   -0.015166    0.939201
C      -1.753975   -1.181217   -1.195142
C      -0.703546   -1.950210   -2.040454
N       0.634899   -1.847083   -1.408984
C      -0.371166   -2.821052   -0.900409
C      -1.425874   -2.118883   -0.002884
H       1.105173    1.567886    0.044206
H       0.465867    0.750427   -1.404686
H      -0.585839    1.834307   -0.441370
H      -2.581286    1.038578    0.670141
H      -3.404225   -0.527231    0.756956
H      -2.228221   -0.066568    2.008037
H      -2.730830   -0.934821   -1.595310
H      -0.820580   -2.181206   -3.091463
H       1.269329   -2.388136   -1.998782
H      -0.154982   -3.880845   -0.868976
H      -2.119071   -2.693902    0.600579
