20

C      -0.100941    1.560962   -0.061027
C       0.096012    0.061277    0.079221
N       1.095255   -0.648688   -0.837041
C       2.421461    0.009247   -0.495917
C       2.344332   -0.610602    0.885782
C       3.400978   -0.772111    1.936039
C       1.369504   -1.623880    0.329453
C       0.826074   -0.581670    1.249149
O       0.386399   -0.792369    2.541017
H       0.778623    2.137393    0.237265
H      -0.344590    1.816608   -1.097969
H      -0.937598    1.885036    0.567086
H      -0.860752   -0.449824   -0.076613
H       3.202383   -0.442451   -1.116257
H       2.455220    1.097103   -0.617236
H       3.740670    0.201574    2.310656
H       3.016511   -1.341885    2.787843
H       4.278846   -1.298474    1.545459
H       1.316896   -2.702409    0.282480
H       0.609741   -0.019575    3.072228
