16

N       0.646313    0.439249   -1.056081
C       0.149816   -0.109034    0.067135
O       0.762404   -0.230700    1.118925
C      -1.279922   -0.627183   -0.022372
C      -1.439258   -2.042163    0.465730
N      -1.901211   -0.926755    1.276981
C      -2.214087   -0.122681   -1.100322
N      -3.515503   -0.125580   -0.739476
O      -1.819554    0.225659   -2.208081
H       1.585614    0.800308   -1.039509
H       0.047377    0.511755   -1.871865
H      -2.217575   -2.659847    0.027538
H      -0.528484   -2.553504    0.762218
H      -1.190721   -0.715978    1.980757
H      -3.749702   -0.297581    0.226550
H      -4.197903    0.228924   -1.388369
