19

C      -0.085161    1.563491   -0.002675
C       0.080972    0.063033   -0.095199
C       0.629141   -0.680551   -1.264685
N       1.340731   -0.671966    0.103059
C       2.465379    0.141466   -0.519972
C       3.790923   -0.600562   -0.427418
C       1.769944    0.047672   -1.868508
N       2.051554    0.258566   -3.085913
O       3.284669    0.930904   -3.207633
H       0.601475    2.113307   -0.648166
H      -1.102891    1.832755   -0.302352
H       0.058316    1.903747    1.028718
H      -0.723364   -0.481967    0.397800
H       0.152191   -1.563805   -1.675583
H       2.559499    1.144361   -0.092474
H       3.695464   -1.614046   -0.826694
H       4.558576   -0.071604   -0.996506
H       4.102518   -0.673543    0.618643
H       3.386405    0.993537   -4.163171
