19

C       0.115910    1.482762   -0.406068
C       0.177245   -0.011521   -0.189499
C       1.484992   -0.722426   -0.056520
C       0.593714   -0.561909    1.162641
C       0.868990    0.159958    2.497146
C       0.353271   -1.098857    3.260347
O      -0.665067   -0.860927    4.199925
C      -0.082676   -1.678219    1.892753
O      -0.781897   -2.604634    1.580352
H       0.940793    1.992109    0.101924
H       0.181708    1.722924   -1.472663
H      -0.821689    1.901837   -0.026020
H      -0.621702   -0.582400   -0.657056
H       1.587562   -1.722261   -0.465124
H       2.393117   -0.126811   -0.066478
H       1.903845    0.439821    2.701727
H       0.214809    1.017597    2.671461
H       1.182380   -1.685034    3.688978
H      -1.216865   -1.651439    4.227367
