19

O      -0.668137    0.784606    0.599696
C       0.103950    1.074443   -0.280682
C       1.282499    2.004169   -0.155200
C       1.206310    3.308215   -1.009968
C       0.008943    4.040877   -0.314135
C       0.210849    3.691317    1.191006
C       1.483225    2.774480    1.171381
C       2.636804    3.679730    0.766128
C       2.472319    3.996682   -0.522549
H      -0.005908    0.627974   -1.298226
H       2.174204    1.430963   -0.440736
H       1.102721    3.187375   -2.089108
H       0.028385    5.114444   -0.512982
H      -0.945514    3.653784   -0.685236
H       0.371872    4.575416    1.811363
H      -0.642729    3.141016    1.589038
H       1.618998    2.176070    2.071286
H       3.376040    4.074393    1.452210
H       3.044501    4.705246   -1.108614
