17

C      -0.074583    1.413850   -0.019744
O       0.006111   -0.008450    0.039113
C      -1.178275   -0.652512    0.036937
C      -1.333533   -2.026779    0.018013
N      -0.435588   -3.098945   -0.070537
N      -2.684321   -2.182558   -0.003633
C      -3.434357   -3.418212   -0.031737
N      -3.315285   -0.994439    0.023895
N      -2.388901   -0.060270    0.032839
H       0.955973    1.771956   -0.019486
H      -0.588159    1.741845   -0.929530
H      -0.613320    1.813571    0.845424
H       0.475036   -2.761391   -0.361303
H      -0.317021   -3.589121    0.811566
H      -3.470307   -3.886162    0.957759
H      -4.448174   -3.178836   -0.352108
H      -2.965929   -4.110045   -0.735545
