19

O      -0.095538    1.327960    0.132863
C       0.020691   -0.079869    0.026253
C       0.337710   -0.875100    1.348185
C      -0.934583   -1.743164    1.139151
C      -2.165382   -1.280632    1.952064
C      -2.454377   -0.189141    0.875830
C      -1.355967   -0.798992   -0.043161
C       0.906681   -0.451558   -1.072670
C       1.657531   -0.740101   -1.967286
H       0.780566    1.709517    0.013001
H       1.289590   -1.408271    1.343404
H       0.292358   -0.225193    2.226523
H      -0.764582   -2.812453    1.014963
H      -2.949901   -2.041337    1.991627
H      -1.970780   -0.936275    2.972473
H      -3.458970   -0.221819    0.449964
H      -2.244272    0.836361    1.182186
H      -1.672525   -1.148135   -1.025351
H       2.311861   -0.995965   -2.763793
