17

C       0.174496    1.515812   -0.214646
C       0.133722    0.067569   -0.073854
C       0.111507   -1.132359    0.039275
C       0.045564   -2.581541    0.161354
C       0.142090   -3.119773    1.624447
C      -1.406324   -3.248297    1.565279
N      -1.331024   -3.165460    0.088556
C      -2.015753   -4.470225    2.090085
N      -2.491432   -5.430115    2.523705
H       0.518967    1.808551   -1.212344
H      -0.816268    1.957408   -0.061712
H       0.854025    1.965602    0.517456
H       0.730039   -3.052560   -0.551504
H       0.638036   -4.088625    1.677196
H       0.544848   -2.442443    2.374516
H      -1.894034   -2.387927    2.042059
H      -2.025993   -2.562353   -0.339193
