15

C      -0.024907    1.415458   -0.022326
N      -0.012786   -0.033970    0.116403
C      -1.186262   -0.728678    0.041362
N      -2.350809   -0.108963    0.041778
O      -3.316989   -1.144160    0.024314
C      -2.704143   -2.313116   -0.004683
C      -1.345464   -2.163425    0.004655
C      -0.344097   -3.220193    0.004302
O      -0.594035   -4.405439   -0.039583
H       0.990310    1.789407    0.122675
H      -0.397543    1.744737   -1.001212
H      -0.672623    1.846422    0.744683
H       0.792384   -0.506268   -0.261260
H      -3.327018   -3.194647   -0.024743
H       0.710895   -2.866675    0.053802
