20

C       0.468414    1.468991    0.108949
C      -0.003653    0.020289    0.033249
C       0.483705   -0.740872   -1.223564
C       1.680591   -1.551359   -0.705870
O       2.874426   -0.780245   -0.644356
C       1.224150   -1.864147    0.725815
C       2.321106   -2.187564    1.725772
O       0.525894   -0.697222    1.155411
H       1.555916    1.511558    0.006196
H       0.009356    2.068914   -0.684593
H       0.192021    1.905717    1.072834
H      -1.100949   -0.007986    0.091263
H      -0.290236   -1.420941   -1.593954
H       0.756667   -0.071271   -2.044628
H       1.844518   -2.473259   -1.281460
H       3.094770   -0.504858   -1.539204
H       0.520839   -2.713554    0.665158
H       3.055234   -1.381140    1.755629
H       1.889079   -2.313674    2.722100
H       2.829314   -3.116897    1.449738
