17

C      -0.018804    1.510140    0.056225
C      -0.006650    0.016469    0.021813
C      -0.025977   -0.793848   -1.059531
C      -0.003469   -2.275688   -0.677968
C       0.031875   -2.158516    0.810322
C       0.030029   -0.848574    1.207815
N       0.062379   -0.729545    2.574811
C       0.083880   -1.977320    2.998807
N       0.066547   -2.892131    1.965454
H       0.870027    1.896325    0.568614
H      -0.050359    1.934669   -0.950574
H      -0.884453    1.880904    0.617310
H      -0.054242   -0.469475   -2.091920
H      -0.888901   -2.803013   -1.057474
H       0.871638   -2.787317   -1.100487
H       0.111961   -2.294737    4.030645
H       0.077672   -3.893102    2.065593
