19

O       0.184692    1.347824   -0.046494
C       0.090055   -0.051595    0.026323
C      -1.365022   -0.563655    0.049117
C      -1.467243   -2.075120   -0.187429
C      -2.899273   -2.539764    0.068942
C      -3.280092   -2.208691    1.501991
O      -3.053103   -0.830994    1.860208
C      -2.067370   -0.088613    1.321031
O      -1.810230    0.974062    1.839239
H      -0.339282    1.677617    0.698922
H       0.583832   -0.454665   -0.865387
H       0.622827   -0.457517    0.903641
H      -1.893308   -0.044390   -0.763993
H      -1.148334   -2.308717   -1.207966
H      -0.781638   -2.606790    0.486623
H      -3.587573   -2.043513   -0.625808
H      -3.007414   -3.619167   -0.080994
H      -4.341759   -2.379073    1.695416
H      -2.705439   -2.827607    2.202993
