23

C      -0.105622    1.561631   -0.012728
C       0.035841    0.043262   -0.026901
C       1.192554   -0.598037   -0.850443
C       2.127925   -0.265214    0.381691
C       0.827853   -0.610574    1.150780
C       0.156695   -0.839962    2.522239
C      -0.507889   -2.115193    1.875029
C       0.670841   -2.105323    0.848659
C       0.808511   -2.103256   -0.700798
H       0.836421    2.084118    0.171804
H      -0.500385    1.920454   -0.969840
H      -0.810349    1.873562    0.766668
H      -0.948983   -0.393159   -0.229966
H       1.447286   -0.239656   -1.849851
H       2.992265   -0.911178    0.563009
H       2.444018    0.778361    0.382914
H       0.866662   -1.121501    3.306038
H      -0.499556   -0.054090    2.906033
H      -0.607976   -3.000489    2.507061
H      -1.480924   -1.887530    1.434093
H       1.496670   -2.667214    1.299452
H      -0.111150   -2.328548   -1.250018
H       1.583490   -2.792232   -1.048865
