17

C       0.077029    1.562237    0.319046
C      -0.134805    0.130104   -0.169411
O       0.703346   -0.798131    0.526407
C      -1.571624   -0.279474   -0.067360
N      -2.439379    0.018873    0.840763
C      -3.572658   -0.725370    0.527282
C      -3.316379   -1.448248   -0.596985
N      -4.052725   -2.272476   -1.428711
O      -2.045118   -1.178979   -0.993230
H       1.144027    1.797304    0.300133
H      -0.457545    2.276182   -0.314469
H      -0.299019    1.676653    1.339910
H       0.171410    0.039589   -1.216364
H       0.417328   -0.795700    1.447544
H      -4.473478   -0.681402    1.116892
H      -4.891004   -2.624665   -0.987853
H      -3.507810   -3.029004   -1.823396
