22

C       0.055762    1.551951   -0.028679
C      -0.001974    0.023018   -0.029897
C      -1.425453   -0.533530    0.055767
C      -1.497448   -2.086888   -0.029730
C      -2.632592   -2.448672    0.945742
C      -2.694560   -1.182035    1.767394
O      -3.417196   -1.215438    2.892291
C      -3.478214    0.010869    3.624371
N      -2.075388   -0.162676    1.325393
H       1.089643    1.909758   -0.061820
H      -0.468230    1.967584   -0.897012
H      -0.420338    1.951833    0.870286
H       0.469672   -0.370439   -0.940163
H       0.573181   -0.373264    0.817213
H      -2.014055   -0.085609   -0.760208
H      -1.665727   -2.448069   -1.046873
H      -0.551301   -2.514784    0.319295
H      -3.593413   -2.608299    0.441012
H      -2.443202   -3.333101    1.559682
H      -4.095341   -0.193547    4.500150
H      -2.476427    0.330059    3.925778
H      -3.923986    0.802139    3.014995
