20

C      -0.191325    1.449533    0.054010
C      -0.003026   -0.057156    0.137132
O       0.963989   -0.562021    0.679168
N      -0.995364   -0.798477   -0.439654
C      -1.019357   -2.245141   -0.380664
C      -2.410161   -2.747778   -0.004357
O      -3.402482   -2.240077   -0.913850
C      -2.514159   -4.270816    0.057653
O      -3.828699   -4.675748    0.368917
H       0.697571    1.889314   -0.404962
H      -1.074841    1.752581   -0.513637
H      -0.265965    1.850314    1.068713
H      -1.809861   -0.347624   -0.824060
H      -0.721619   -2.682374   -1.347409
H      -0.272446   -2.552494    0.356032
H      -2.700087   -2.332060    0.966562
H      -3.181629   -2.567584   -1.795520
H      -2.177421   -4.694947   -0.907338
H      -1.851857   -4.666599    0.835042
H      -4.409244   -4.086837   -0.129985
