20

O       0.101958    1.424493    0.021887
C       0.109010    0.011207   -0.054778
C      -1.305005   -0.560768    0.000261
C      -1.452992   -2.075291   -0.165901
C      -0.860177   -3.038337    0.832272
C      -2.286847   -2.571177    0.998179
C      -2.585373   -1.363099    1.862308
C      -1.474490   -0.643240    2.533027
N      -2.008694   -0.146440    1.249228
H      -0.535263    1.658237    0.706936
H       0.576607   -0.254080   -1.009275
H       0.728711   -0.430567    0.742355
H      -1.868874   -0.085963   -0.812345
H      -1.628121   -2.440402   -1.172413
H      -0.721485   -4.058409    0.488248
H      -0.096353   -2.717108    1.528946
H      -3.088773   -3.286059    0.858149
H      -3.596632   -1.280779    2.251218
H      -1.681995    0.012334    3.375157
H      -0.495826   -1.107884    2.574405
