19

C       0.053414    1.510214    0.005901
C       0.063486   -0.007126   -0.052504
C       0.618764   -0.542720   -1.367466
O       0.644546   -1.964744   -1.406886
C       0.957220   -2.616675   -0.215149
C       2.264908   -2.430652    0.532728
O       3.205991   -1.509190    0.081576
C       0.966809   -1.870101    1.098746
O       0.887638   -0.470932    1.031099
H       1.058002    1.911819   -0.160132
H      -0.614234    1.919417   -0.757874
H      -0.291956    1.847118    0.986486
H      -0.953618   -0.401825    0.091489
H      -0.017964   -0.231262   -2.201596
H       1.627934   -0.139810   -1.526448
H       0.534711   -3.617023   -0.217373
H       2.701021   -3.307658    1.006141
H       2.955033   -0.658857    0.470412
H       0.506377   -2.288075    1.991227
