23

C       0.711062    1.419628   -0.618567
C       0.058458    0.147983   -0.061696
C       0.041620   -0.969102   -1.116063
N       0.747192   -0.244042    1.181036
C      -0.039624   -0.689871    2.332613
C      -0.986868   -1.890480    2.077155
C       0.949721   -1.038698    3.463328
C      -0.866422    0.455644    2.781633
N      -1.531607    1.331237    3.137286
H       1.759739    1.232469   -0.876935
H       0.196893    1.765167   -1.521727
H       0.685441    2.217518    0.127258
H      -0.975710    0.394732    0.206587
H       1.066224   -1.237167   -1.403523
H      -0.452108   -1.872289   -0.747675
H      -0.477152   -0.645237   -2.024067
H       1.479944   -0.919386    0.994608
H      -0.395770   -2.756214    1.762620
H      -1.534159   -2.155405    2.986671
H      -1.718221   -1.663380    1.298595
H       1.611850   -0.193796    3.660924
H       0.418605   -1.301893    4.380760
H       1.556348   -1.898880    3.160399
