16

O      -0.120668   -0.062424    0.046053
C      -0.089254    1.128952    0.063459
C      -1.167103    2.233668    0.164837
C      -0.048619    3.188244    0.670215
C       0.060746    3.229588    2.190107
O       1.419059    3.389720    2.631027
C       2.324855    2.585497    2.023988
N       2.227095    1.962027    0.924862
C       1.039250    2.195683    0.149999
H      -1.546953    2.509650   -0.823594
H      -2.016748    2.027772    0.820837
H      -0.023780    4.187983    0.236494
H      -0.493664    4.059442    2.631959
H      -0.319859    2.293430    2.621490
H       3.236518    2.529342    2.615468
H       1.330584    2.445335   -0.879250
