19

C       0.000756    1.394949   -0.165788
C       0.022217   -0.122676   -0.142622
O       1.034653   -0.754563   -0.333387
C      -1.312418   -0.810516    0.135953
C      -1.200838   -2.332288    0.220015
C      -2.553011   -2.990838    0.463316
O      -2.402753   -4.405408    0.640353
C      -2.758564   -5.211421   -0.376499
O      -2.639442   -6.398312   -0.335924
H       0.988129    1.775135   -0.429460
H      -0.742050    1.761289   -0.882987
H      -0.289475    1.783192    0.817297
H      -1.728973   -0.389594    1.061974
H      -2.014377   -0.506184   -0.654429
H      -0.760572   -2.721001   -0.703847
H      -0.514146   -2.611984    1.024574
H      -3.017087   -2.618378    1.382107
H      -3.246090   -2.790597   -0.365562
H      -3.177267   -4.653576   -1.238439
