19

C      -0.142140    1.501641    0.008694
C      -0.069053    0.047883    0.007802
C      -0.003184   -1.154913    0.026433
C       0.048770   -2.617068   -0.006777
O      -1.256766   -3.194456   -0.053122
C       0.925637   -3.116450   -1.175458
C       1.027895   -4.649007   -1.201982
C       1.666505   -5.149905   -2.474132
O       2.632612   -5.865834   -2.533269
H       0.844214    1.943397    0.187325
H      -0.507029    1.883811   -0.950817
H      -0.815942    1.865501    0.791839
H       0.481087   -2.987713    0.931639
H      -1.774841   -2.679164   -0.681375
H       0.490048   -2.748244   -2.113557
H       1.919883   -2.664685   -1.090094
H       1.594165   -5.032881   -0.348220
H       0.008351   -5.054526   -1.150951
H       1.161465   -4.795443   -3.405108
