15

N      -0.843186    0.315951   -1.139751
C      -0.324865    0.202911    0.007698
O      -0.290210   -0.954039    0.691798
C      -0.822524   -2.081418    0.028784
C      -1.056004   -3.287916    0.965568
N      -2.242588   -2.507336    1.537743
C      -2.366989   -2.267879    0.028351
C      -2.080259   -3.780525   -0.086951
O      -2.549183   -4.786143   -0.521512
H      -0.754866    1.270555   -1.480136
H       0.158859    0.981429    0.603905
H      -0.311489   -2.253562   -0.918850
H      -0.344588   -3.814202    1.597264
H      -2.973087   -3.144664    1.866906
H      -3.130069   -1.629896   -0.406179
