19

C       0.004523    1.593921   -0.034858
C       0.038976    0.055320   -0.061947
C       0.707750   -0.491003   -1.234492
C       1.262926   -0.941398   -2.207950
C       1.928405   -1.489221   -3.374616
O       2.050819   -2.676110   -3.565409
C       2.455788   -0.425118   -4.332025
O       3.079821   -1.022668   -5.423933
C       3.587772   -0.084548   -6.344138
H       1.016979    2.006101   -0.037387
H      -0.523973    1.986911   -0.907336
H      -0.508080    1.944038    0.865399
H       0.540940   -0.324001    0.837435
H      -0.983068   -0.342983   -0.022948
H       1.604097    0.212808   -4.633787
H       3.141808    0.231962   -3.765450
H       4.052963   -0.648496   -7.155484
H       2.791327    0.551415   -6.762077
H       4.344778    0.570769   -5.884847
