17

O       0.164663    1.371661    0.369564
C       0.023275    0.118394   -0.280841
C      -1.340273   -0.408270   -0.233515
C      -2.463821   -0.830304   -0.126619
C      -3.828255   -1.281945   -0.018604
C      -4.831691   -0.276615    0.523728
O      -4.555581    0.055329    1.867614
C      -4.299949   -2.418737   -0.834339
O      -4.014926   -2.604770    0.547704
H      -0.230375    1.290149    1.244230
H       0.329957    0.283673   -1.319810
H       0.711009   -0.635171    0.136124
H      -4.777455    0.655292   -0.046865
H      -5.841230   -0.698092    0.405681
H      -4.564839   -0.769980    2.366211
H      -5.351979   -2.472823   -1.112801
H      -3.605480   -2.893554   -1.524401
