19

C       0.078450    1.578064   -0.044103
C       0.024349    0.052056    0.046204
C       0.698790   -0.652544   -1.168910
C       1.998172   -1.174212   -0.595814
C       1.988716   -1.047593    0.731884
N       0.814875   -0.444169    1.199291
C       0.362297   -0.322382    2.490622
N       1.159872   -0.928972    3.460074
O      -0.643807    0.307406    2.772717
H       1.111322    1.919423   -0.171675
H      -0.504801    1.921451   -0.905006
H      -0.335283    2.022169    0.862633
H      -1.012101   -0.264200    0.182178
H       0.080670   -1.467247   -1.568947
H       0.851701    0.056212   -1.990037
H       2.803887   -1.596642   -1.177911
H       2.765445   -1.310237    1.436030
H       1.581947   -1.815165    3.224675
H       0.691528   -0.937572    4.354566
