20

C       0.297408    0.070060    0.808280
C      -0.622853   -0.048144   -0.403832
O      -1.235031    1.195604   -0.726912
C       0.127650   -0.463809   -1.682748
C       0.702921   -1.800159   -1.617423
C       1.169183   -2.910493   -1.545820
C       1.743323   -4.225596   -1.492774
C       0.906736   -5.389817   -1.070262
N       1.323709   -5.263127   -2.469415
H       0.792177   -0.883267    1.013803
H       1.062856    0.832848    0.631089
H      -0.270611    0.354372    1.701620
H      -1.392256   -0.809926   -0.199484
H      -1.644023    1.542662    0.071852
H      -0.577856   -0.397488   -2.519524
H       0.910618    0.279530   -1.881060
H       2.807321   -4.261801   -1.272326
H       1.372468   -6.205420   -0.524189
H      -0.127432   -5.189207   -0.806624
H       0.553583   -4.893711   -3.022164
