20

C      -0.107437    1.535237    0.065474
C      -0.054093    0.016475   -0.047181
C      -1.447892   -0.575004    0.125018
C       0.889875   -0.612611   -1.090712
C       2.112553   -0.264399   -0.192268
C       2.644228   -1.700266   -0.178356
O       3.378327   -2.134861    0.928957
C       1.118828   -1.830061   -0.147978
N       1.014125   -0.636356    0.857184
H       0.870868    2.004281   -0.059429
H      -0.776518    1.950092   -0.696324
H      -0.498533    1.827292    1.046030
H      -2.126451   -0.178346   -0.638095
H      -1.458918   -1.664230    0.046743
H      -1.854687   -0.303411    1.105061
H       0.839799   -0.611827   -2.185494
H       2.659707    0.675281   -0.118648
H       3.153638   -2.049101   -1.080265
H       2.908162   -1.814341    1.710049
H       0.504040   -2.721181   -0.022577
