16

O       0.021010    1.347401    0.514512
C       0.009948    0.081138   -0.130655
C      -1.377445   -0.477808   -0.049280
C      -1.744846   -1.821689    0.048849
N      -3.122098   -1.871543    0.047703
C      -3.629052   -0.618798   -0.038711
C      -2.571388    0.274239   -0.104165
C      -0.992793   -3.048159    0.155216
O      -1.509430   -4.151131    0.224759
H       0.871842    1.760362    0.339352
H       0.304860    0.184043   -1.188345
H       0.728863   -0.611640    0.332882
H      -3.621980   -2.743614    0.115470
H      -4.693588   -0.443364   -0.043544
H      -2.642384    1.348006   -0.164746
H       0.110006   -2.928040    0.174184
