16

C      -0.056396    1.586468    0.005176
C      -0.004387    0.046826    0.021074
N       0.767798   -0.496109    1.129318
C       2.131607   -0.585897    1.056583
N       2.789635   -0.273853    0.007765
C       2.782129   -1.120202    2.317360
O       3.969623   -1.275317    2.408069
C      -1.355087   -0.532526    0.050976
N      -2.424950   -0.966008    0.093569
H       0.964020    1.968237   -0.061476
H      -0.624426    1.938218   -0.859935
H      -0.531242    1.968885    0.912590
H       0.498777   -0.291182   -0.891723
H       0.317030   -0.576409    2.026677
H       3.777952   -0.471736    0.172338
H       2.094846   -1.363629    3.158494
