19

C      -0.228224    1.305175    0.038075
O       0.145167   -0.051105   -0.083846
C       0.727197   -0.615745    1.105038
C      -0.286771   -0.891614    2.205556
C      -0.328877   -2.186529    2.520127
C       0.598668   -2.999149    1.686897
C       0.320888   -2.993801    0.183482
O      -0.901958   -2.624218   -0.354252
C       1.288376   -1.996860    0.765743
H       0.624634    1.923016    0.357020
H      -0.556901    1.638655   -0.949036
H      -1.050612    1.452268    0.751867
H       1.520848    0.070627    1.441464
H      -0.911419   -0.116072    2.632024
H      -0.990068   -2.630675    3.255822
H       1.122385   -3.846868    2.113894
H       0.778112   -3.822853   -0.354156
H      -0.866533   -1.670027   -0.509252
H       2.338220   -2.072750    0.510583
