17

O      -0.099938   -0.060897    0.122120
C      -0.043826    1.143024    0.017936
N      -1.123916    1.981921   -0.234644
C      -0.903436    3.408258    0.009889
C       0.608137    3.463316    0.127572
C       1.557920    3.856806    1.276324
C       2.125030    2.386463    1.271139
C       1.137211    2.063557    0.139707
N       1.420984    2.980713   -0.986707
H      -2.034566    1.586051   -0.407074
H      -1.309681    4.020963   -0.804629
H      -1.374806    3.740477    0.944810
H       2.260656    4.659875    1.045794
H       1.023537    4.092222    2.199253
H       3.177922    2.266429    1.011127
H       1.910647    1.845184    2.193772
H       0.812847    2.734942   -1.765999
