14

N      -0.061009    1.328906    0.015876
C       0.090036   -0.019942    0.003025
O       1.137476   -0.629895   -0.012897
N      -1.145369   -0.694558    0.012849
C      -1.446996   -2.132006    0.010721
C      -2.957635   -1.742293    0.023470
C      -2.468563   -0.283877    0.023346
O      -2.953120    0.819782    0.028756
H       0.768594    1.894815   -0.006070
H      -0.981216    1.745730    0.014605
H      -1.097710   -2.645728   -0.887053
H      -1.083870   -2.651315    0.899752
H      -3.526912   -2.022451   -0.864269
H      -3.512774   -2.026849    0.918735
