19

C       0.271609    1.474528   -0.105605
C       0.185536   -0.043223   -0.034138
O       1.167075   -0.750101   -0.174103
N      -1.067362   -0.544146    0.197935
C      -1.352200   -1.951426    0.300633
C      -2.102649   -2.489277    1.550381
C      -2.837687   -3.485945    0.612864
C      -2.466959   -2.571408   -0.586614
H       0.690040    1.756314   -1.075384
H      -0.688160    1.980626    0.028713
H       0.967591    1.822596    0.662287
H      -1.832687    0.102143    0.303589
H      -0.399824   -2.463970    0.157984
H      -1.503023   -2.885091    2.373176
H      -2.791538   -1.736415    1.949319
H      -2.322090   -4.448564    0.561964
H      -3.897295   -3.668228    0.800510
H      -3.258557   -1.841702   -0.790142
H      -2.168349   -3.035080   -1.529510
