19

O       0.118163    1.414502    0.210776
C       0.057355    0.002226    0.112047
C      -1.367275   -0.504213   -0.156074
C      -1.427507   -1.989049   -0.327520
C      -0.908622   -2.859083   -1.482808
C      -2.006631   -3.928739   -1.099343
O      -1.587998   -5.200323   -0.694901
C      -2.466707   -2.976248    0.018434
O      -1.309872   -2.810350    0.859119
H      -0.360236    1.675862    1.004035
H       0.712313   -0.265440   -0.723981
H       0.458972   -0.487659    1.011320
H      -2.019508   -0.218506    0.678654
H      -1.751466   -0.012585   -1.057530
H      -1.073623   -2.423119   -2.471509
H       0.127803   -3.193775   -1.394583
H      -2.747001   -4.064597   -1.891026
H      -1.045798   -5.061269    0.092617
H      -3.437436   -2.863458    0.489646
