15

C      -0.038878    1.571778   -0.071261
C       1.514547    1.343848    0.000429
N       1.158887    0.203430    0.934817
C      -0.025026    0.002173    0.008550
C       0.666902   -0.316987   -1.305874
N       0.697342   -1.043835   -2.402967
N       1.770489   -0.522459   -3.042659
N       2.437500    0.472646   -2.412148
C       1.728231    0.607919   -1.311473
H      -0.426705    2.022348    0.843415
H      -0.449371    2.037394   -0.967462
H       2.213268    2.097924    0.354209
H       1.828829   -0.565643    0.882883
H      -0.865408   -0.585015    0.370449
H       2.129201   -0.939185   -3.885656
