19

C      -0.131065    1.647934    0.036015
C       0.025349    0.138911    0.027789
C       1.165677   -0.584164   -0.778181
C       2.425903   -0.021203   -0.127116
C       2.139895   -0.046308    1.180477
C       0.731012   -0.624336    1.217861
O       0.159070   -0.807461    2.467544
C       0.934391   -1.808843    0.206762
O      -0.249091   -2.558300    0.068599
H       0.818198    2.156073    0.223644
H      -0.526998    2.005719   -0.920978
H      -0.837584    1.950959    0.816715
H      -0.932233   -0.342462   -0.191273
H       1.125563   -0.699635   -1.860440
H       3.336202    0.275130   -0.628682
H       2.730357    0.219732    2.045194
H      -0.598864   -1.391282    2.345706
H       1.808441   -2.447701    0.379011
H      -0.076164   -3.309972   -0.505311
