10

C       0.091984   -1.164299   -0.005218
C       0.023400    0.035094    0.002555
C      -0.009138    1.444427    0.011100
N      -1.114147    2.155302    0.028727
O      -0.715780    3.458885    0.031394
N       0.631940    3.587073    0.015596
C       1.097253    2.361806    0.002764
C       2.484953    2.064410   -0.016005
N       3.605193    1.780692   -0.031398
H       0.148272   -2.226045   -0.012018
