17

C      -0.129056    1.440177    0.011002
N      -0.012132   -0.001442    0.002258
C       0.017316   -0.798948   -1.126875
N      -0.063583   -0.194450   -2.402521
C       0.044912   -2.113106   -0.722722
C       0.053141   -2.120947    0.703284
C       0.030192   -0.811200    1.121925
N      -0.036746   -0.221023    2.404966
H       0.850528    1.936409    0.011014
H      -0.672608    1.752594   -0.882476
H      -0.667530    1.742506    0.911052
H       0.840551    0.126249   -2.740360
H      -0.420937   -0.857591   -3.079352
H       0.073294   -2.971092   -1.377647
H       0.089003   -2.986011    1.348453
H      -0.378711   -0.894352    3.079679
H       0.869650    0.103537    2.732925
