18

C      -0.141505    1.485247    0.074733
C      -0.053072   -0.003356    0.009869
N      -0.282016   -0.746971   -1.051992
C      -0.083612   -2.052687   -0.653254
C       0.270209   -2.099550    0.667301
N       0.285898   -0.780580    1.080029
N      -0.228536   -3.172411   -1.498882
C      -1.275817   -3.085097   -2.529918
C       0.153874   -2.984425   -2.908131
H       0.816677    1.940365    0.351381
H      -0.428801    1.860620   -0.908072
H      -0.888971    1.819327    0.803751
H       0.502583   -2.920064    1.323529
H       0.508056   -0.454157    2.005221
H      -1.827574   -4.005712   -2.697997
H      -1.857905   -2.168972   -2.563105
H       0.518436   -2.001629   -3.191726
H       0.666619   -3.830061   -3.357806
