19

C      -0.198271    1.507009    0.020603
C       0.054667   -0.010649    0.025288
C       0.772471   -0.498240   -1.207980
C       2.069832   -0.840131   -1.240600
C       2.753655   -1.358652   -2.471682
O       1.853764   -1.857551   -3.436138
C       0.803057   -0.958004   -3.721454
C       0.010434   -0.546954   -2.481495
O      -1.157494   -0.222210   -2.566258
H       0.743935    2.062525   -0.030581
H      -0.814401    1.791793   -0.835152
H      -0.720519    1.810781    0.932940
H       0.636852   -0.288208    0.910657
H      -0.908603   -0.527740    0.093230
H       2.686351   -0.747022   -0.347782
H       3.392986   -0.562501   -2.902158
H       3.419660   -2.189401   -2.213558
H       1.182038   -0.036763   -4.202457
H       0.130085   -1.450843   -4.426008
