18

C       0.123954    1.594127   -0.015158
C       0.088455    0.072588   -0.011297
O      -1.257779   -0.420350    0.000048
C       0.781746   -0.628344   -1.156221
C       2.264541   -0.604042   -1.180334
N       1.571919   -1.798085   -0.681672
C       1.487686   -1.827661    0.781565
C       0.767541   -0.554875    1.236329
O       0.656440   -0.136397    2.359299
H       1.143864    1.972620   -0.125310
H      -0.485357    1.980869   -0.836503
H      -0.271208    1.972636    0.933825
H      -1.690985   -0.049440    0.778441
H       0.208328   -0.773426   -2.066238
H       2.791479   -0.735880   -2.120335
H       2.784448    0.030423   -0.462089
H       0.893231   -2.694937    1.093487
H       2.472673   -1.915621    1.249294
