20

C      -0.192355    1.573219    0.107215
N       0.133189    0.150047    0.157404
C       1.367559   -0.465072   -0.265942
C       2.636958    0.271184    0.174864
O       2.945684    1.557401   -0.338080
C       2.131758    0.232767    1.656863
O       1.964751    1.479383    2.285443
C       0.870701   -0.531080    1.186728
C       0.224924   -1.653935    1.945777
H       0.559878    2.246255    0.526654
H      -0.393093    1.841114   -0.936715
H      -1.118346    1.730000    0.668987
H       1.325924   -1.221609   -1.044188
H       3.528705   -0.348309    0.044286
H       2.172221    1.900765   -0.793352
H       2.766093   -0.421965    2.270714
H       2.484934    2.102606    1.757267
H      -0.343055   -1.266036    2.799502
H      -0.467170   -2.202116    1.301658
H       0.974399   -2.350533    2.335952
