18

C       0.051093    1.466819    0.008347
C      -0.035686   -0.061336    0.001792
C      -1.473336   -0.558322    0.013176
O      -1.462730   -1.975723    0.006110
C      -2.740756   -2.537709    0.015704
C      -2.594675   -4.050710    0.006087
F      -1.929734   -4.493558    1.077513
F      -3.814456   -4.614772    0.015256
F      -1.951365   -4.481903   -1.083150
H       1.092996    1.798506    0.000044
H      -0.441726    1.899684   -0.869179
H      -0.424910    1.891146    0.899225
H       0.465231   -0.468326   -0.883680
H       0.482093   -0.476818    0.873514
H      -2.004119   -0.189320    0.907489
H      -2.021189   -0.180618   -0.867099
H      -3.314007   -2.260903    0.914402
H      -3.331619   -2.251290   -0.868455
