17

C       0.210173    0.921274    0.472195
O      -0.422783    0.120684   -0.519406
C       0.442292   -0.538816   -1.408022
C       0.518280   -2.070307   -1.071589
N      -0.814215   -2.673733   -0.921765
C       1.268328   -2.741567   -2.135878
C       1.865348   -3.236943   -3.051734
C       1.241028   -2.238835    0.214440
N       1.807749   -2.327086    1.217026
H       0.851615    0.329158    1.133732
H       0.806779    1.719313    0.009446
H      -0.590025    1.374569    1.061027
H       0.021839   -0.463395   -2.417584
H       1.447560   -0.100265   -1.413199
H      -1.389744   -2.007789   -0.409646
H      -1.223368   -2.783539   -1.845266
H       2.401143   -3.695557   -3.846634
