19

C       0.189571    1.427455    0.169506
C       0.258028   -0.086732   -0.042033
C       0.273445   -0.463060   -1.528600
N       0.322456   -1.896167   -1.747637
C       1.383248   -2.541018   -2.263031
O       2.431721   -2.040339   -2.645180
C       1.137836   -4.065622   -2.335477
N       2.196078   -4.706839   -2.863692
O       0.098915   -4.573882   -1.948688
H       1.052060    1.929659   -0.281826
H      -0.714376    1.852795   -0.280602
H       0.178819    1.676503    1.234424
H       1.156861   -0.496193    0.433181
H      -0.598945   -0.570393    0.444313
H      -0.613542   -0.051442   -2.027480
H       1.155222   -0.044044   -2.021040
H      -0.447014   -2.496043   -1.478787
H       2.991536   -4.150852   -3.137735
H       2.186161   -5.706005   -2.973854
