24

C      -0.197293    1.513332    0.110905
C       0.012321    0.003650   -0.045430
C       0.830886   -0.406392   -1.282659
C       2.272676    0.113590   -1.237378
C       0.800164   -1.938232   -1.444844
N       1.379961   -2.360169   -2.705623
C       2.305191   -3.210936   -2.671415
O       2.871552   -3.660305   -3.809618
C       3.948528   -4.572821   -3.640337
H       0.747117    2.044692    0.262506
H      -0.678572    1.938583   -0.777033
H      -0.837479    1.731639    0.971592
H       0.499529   -0.392174    0.856994
H      -0.969401   -0.485279   -0.097513
H       0.342966    0.013396   -2.173102
H       2.796607   -0.265470   -0.350112
H       2.828240   -0.210193   -2.121426
H       2.309514    1.205906   -1.203199
H       1.295852   -2.408517   -0.574537
H      -0.247875   -2.266067   -1.431029
H       2.715865   -3.657258   -1.750949
H       4.804719   -4.097591   -3.145861
H       3.643449   -5.454785   -3.063656
H       4.245303   -4.887704   -4.641460
