21

C      -0.570354    1.443388   -0.014790
C       0.080285    0.060548   -0.045648
C       1.114334   -0.145424   -1.161690
O       1.843406   -1.309889   -0.796139
C       1.904360   -1.390062    0.628482
C       3.265173   -0.936756    1.210196
O       2.974352   -0.008863    2.245141
C       1.819447    0.702815    1.829150
C       0.893486   -0.356753    1.197342
H       0.169674    2.241669    0.100131
H      -1.117870    1.634475   -0.943707
H      -1.284604    1.527010    0.810438
H      -0.705791   -0.691307   -0.187845
H       0.668600   -0.320918   -2.145400
H       1.778656    0.731572   -1.243601
H       1.671209   -2.422744    0.902390
H       3.851709   -1.749061    1.646582
H       3.852029   -0.472369    0.401837
H       1.393354    1.195798    2.706188
H       2.092213    1.481054    1.097243
H       0.260540   -0.796929    1.970890
