20

C       0.081186    1.553118    0.034886
C      -0.000315    0.021515    0.013938
C       0.621360   -0.543990   -1.284783
C       0.703467   -2.063271   -1.302891
O       1.994022   -2.651019   -1.086273
C       1.021597   -2.771926   -0.052778
C       1.189079   -1.968048    1.209165
N       2.098781   -0.810040    1.168586
C       0.651009   -0.576960    1.249935
H       1.126718    1.878867    0.045056
H      -0.399767    1.986383   -0.848334
H      -0.410971    1.968140    0.921001
H      -1.061066   -0.269636    0.043965
H       0.034224   -0.192684   -2.139406
H       1.635007   -0.148873   -1.395909
H       0.111193   -2.580997   -2.056982
H       0.644481   -3.783880    0.098546
H       1.154124   -2.546163    2.129169
H       2.540027   -0.687008    2.075108
H       0.242097   -0.232416    2.198861
