16

C      -0.039789   -1.174289    0.374700
C       0.020742    0.002747    0.137511
C       0.051541    1.399643   -0.187759
C      -0.822373    1.952759   -1.306940
C      -0.297511    3.392600   -1.517535
C       1.192392    3.357679   -1.097512
C       1.248434    2.259263   -0.056398
O       0.198292    2.326669    0.912529
H      -0.084521   -2.212030    0.595781
H      -0.676786    1.332290   -2.198557
H      -1.885471    1.920545   -1.052768
H      -0.433214    3.736578   -2.545323
H      -0.842451    4.077753   -0.865506
H       1.844057    3.081083   -1.935450
H       1.543437    4.319755   -0.711778
H       2.195465    1.870832    0.309617
