15

C       0.114579    1.567639   -0.106104
C      -0.020115    0.057779    0.063383
O       0.517040   -0.618956   -1.075325
C       1.444346   -1.623517   -0.687466
C       1.596215   -1.471212    0.795109
C       0.764571   -0.522517    1.231054
C       0.581721   -0.092868    2.569879
N       0.401851    0.284853    3.650216
H       1.167062    1.851611   -0.193744
H      -0.409881    1.885396   -1.010902
H      -0.322881    2.089650    0.750454
H      -1.086680   -0.199286    0.168417
H       1.068514   -2.625728   -0.952608
H       2.394089   -1.483118   -1.224637
H       2.272340   -2.061384    1.399232
