16

C       0.031106    1.426352    0.203127
N       0.006169   -0.008419   -0.019124
C      -1.167446   -0.720886   -0.065331
C      -1.190210   -2.031635   -0.384353
C       0.049593   -2.703411   -0.698686
C       1.220317   -1.829457   -0.632408
N       1.195915   -0.571596   -0.322056
N       0.048798   -3.963135   -1.001757
O       1.363503   -4.413117   -1.272299
H       1.002382    1.690016    0.621547
H      -0.116352    1.985224   -0.729525
H      -0.755252    1.702828    0.909821
H      -2.059343   -0.157597    0.180687
H      -2.120804   -2.583412   -0.401667
H       2.197964   -2.236626   -0.853375
H       1.213971   -5.341629   -1.472983
