20

C      -0.018827    1.537486   -0.000283
C      -0.042143   -0.002807   -0.016683
C      -1.485490   -0.541088   -0.039316
C       0.752288   -0.542220   -1.166012
C       1.859729   -1.325955   -1.255785
C       2.085315   -1.458095   -2.657959
C       3.167108   -2.211627   -3.363146
N       1.181812   -0.803403   -3.348939
O       0.333118   -0.220169   -2.404945
H       1.005166    1.917721    0.057547
H      -0.478163    1.940229   -0.907592
H      -0.574999    1.915912    0.862802
H       0.449964   -0.367255    0.892565
H      -2.002919   -0.219555   -0.947753
H      -1.501282   -1.634421   -0.010247
H      -2.043492   -0.166375    0.824211
H       2.433552   -1.749058   -0.447528
H       3.133868   -3.275877   -3.107672
H       3.052962   -2.108002   -4.443800
H       4.155666   -1.837182   -3.077603
