15

O       0.190260    1.501187   -0.037429
C       0.131778    0.090201    0.025016
C       0.672269   -0.443332    1.331976
C      -0.178479   -1.275834    1.933080
C      -1.475722   -1.450263    1.183931
C      -1.360303   -0.377927    0.103584
O      -2.237565    0.138787   -0.531160
C       0.776344   -0.543240   -1.132184
C       1.278038   -1.071492   -2.089158
H      -0.495775    1.768911   -0.665459
H       1.660474   -0.171811    1.680126
H       0.020298   -1.789743    2.866222
H      -1.569088   -2.441282    0.718767
H      -2.377273   -1.299823    1.787382
H       1.730566   -1.528515   -2.934634
