17

O      -0.065503    0.146461   -0.590282
C       0.058250    1.113776    0.126520
C       1.278905    1.950391    0.152526
N       2.263027    1.757178   -0.934386
C       2.613105    1.276109    0.392140
C       3.444694    2.237100    1.235892
N       2.640925    3.450740    1.509765
C       2.304344    4.289600    0.349347
C       1.326917    3.287743    0.845561
H      -0.749224    1.425738    0.821781
H       1.925290    0.972533   -1.495376
H       2.666221    0.204900    0.567782
H       3.679741    1.765428    2.195851
H       4.388057    2.500357    0.747107
H       2.167107    5.340835    0.588067
H       2.776348    4.079793   -0.604711
H       0.446332    3.581407    1.411672
