11

O      -0.163082    0.033224   -0.002311
C      -0.026686    1.221918    0.006425
C       1.331509    1.893447   -0.002499
N       2.431771    1.265824   -0.020029
C       3.641717    2.023506   -0.026758
O       4.709922    1.483876   -0.042466
N       3.525172    3.444448   -0.013174
C       2.364669    3.947847    0.003901
O       1.188983    3.256057    0.010851
H      -0.871535    1.939128    0.021808
H       2.181979    5.018884    0.015163
