21

C      -0.584426    1.354464   -0.008491
C       0.260546    0.081844   -0.200492
C       0.917122   -0.360343    1.025818
C       1.455871   -0.698523    2.048203
C       2.098483   -1.142788    3.291893
C       1.869902   -2.657023    3.529458
C       3.529473   -0.813374    3.311612
C       4.706558   -0.564747    3.341426
C       6.128682   -0.253547    3.369574
H       0.037102    2.183772    0.339872
H      -1.054230    1.647441   -0.952269
H      -1.371887    1.189944    0.732096
H      -0.376125   -0.725428   -0.585190
H       1.019038    0.259589   -0.973789
H       1.619972   -0.606779    4.125282
H       2.326974   -3.238755    2.725767
H       2.318971   -2.958826    4.479242
H       0.798966   -2.874557    3.553658
H       6.732075   -1.156519    3.514732
H       6.451064    0.212266    2.431738
H       6.369625    0.439607    4.183209
