21

O      -0.001200    0.069197    0.838826
C       0.196332    0.872206   -0.044600
C       1.314285    1.855054   -0.057898
C       1.734652    2.349567    1.327877
C       2.593760    1.362646    0.622007
C       1.430982    2.797260   -1.233409
C       1.484462    2.251553   -2.693423
C       0.660891    3.489974   -3.140055
C       0.228729    3.693253   -1.662443
H      -0.481564    0.910727   -0.925061
H       2.063092    3.381022    1.393920
H       1.137842    1.991998    2.158931
H       2.577246    0.338491    0.976302
H       3.530390    1.695389    0.188253
H       2.303495    3.439097   -1.068242
H       2.470895    2.098545   -3.137929
H       0.910687    1.326459   -2.805205
H       1.306219    4.301312   -3.488632
H      -0.126928    3.332705   -3.879699
H      -0.732758    3.213262   -1.455896
H       0.194425    4.712088   -1.268938
