18

C       0.019684    1.484376    0.040503
C       0.001276    0.029028    0.016841
C      -0.003016   -1.174666    0.000114
C      -0.044218   -2.633733   -0.033902
C      -1.490826   -3.160942   -0.108436
C       0.816463   -3.156149   -1.223067
O       2.133057   -2.653488   -1.229721
C       0.824780   -4.635993   -1.242985
N       0.856393   -5.791233   -1.227619
H       0.801562    1.879502   -0.617103
H      -0.937169    1.900987   -0.292387
H       0.213080    1.862291    1.050382
H       0.417140   -3.027457    0.884079
H      -1.981646   -2.810171   -1.021318
H      -1.510459   -4.253849   -0.096186
H      -2.064942   -2.792510    0.744318
H       0.363809   -2.804599   -2.156251
H       2.566556   -2.919601   -0.410350
