19

C      -0.215429    1.532662   -0.065388
C       0.025184    0.037514    0.005863
C       1.363438   -0.628359   -0.226973
C       2.615476    0.210471   -0.047300
O       2.479814    0.884095    1.204283
C       1.643371    0.098900    2.062586
C       0.983269    0.966816    3.034662
C       0.433526    1.637863    3.865704
C       0.715908   -0.686734    1.138516
H       0.622072    2.104716    0.335029
H      -0.378824    1.839950   -1.104518
H      -1.109244    1.803924    0.505436
H      -0.801584   -0.542861   -0.398950
H       1.428095   -1.502716   -0.864847
H       3.504652   -0.439465   -0.049216
H       2.756721    0.984745   -0.809215
H       2.261108   -0.628098    2.617884
H      -0.052300    2.241499    4.591906
H       0.284738   -1.597301    1.537479
