17

C      -0.006874    1.626631    0.286035
C      -0.027800    0.136948   -0.099612
C      -1.397662   -0.427936   -0.198629
C      -2.097553   -1.021188   -1.180954
N      -1.779671   -1.428052   -2.481078
N      -3.367012   -1.298949   -0.660714
C      -3.425705   -0.927646    0.666966
O      -4.324743   -1.039837    1.455240
O      -2.199627   -0.370361    0.945880
H       1.021843    1.987295    0.377610
H      -0.519613    2.233304   -0.466540
H      -0.511179    1.781276    1.243233
H       0.471578   -0.006265   -1.065202
H       0.556977   -0.432683    0.635609
H      -0.790356   -1.331757   -2.670607
H      -2.298499   -0.916582   -3.189388
H      -4.050020   -1.905842   -1.080186
