23

C      -0.267374    1.612561   -0.001250
C       0.087209    0.125524    0.042955
C       1.350162   -0.624385   -0.344544
C       2.718250   -0.096019    0.176092
C       4.002761   -0.681181   -0.333873
C       2.628181    1.205122    0.916746
C       2.159448   -0.066248    1.591864
C       0.816389   -0.676071    1.088560
C       0.204427   -1.825007    1.838524
H       0.268698    2.145515   -0.792681
H      -1.336928    1.725791   -0.204975
H      -0.069371    2.118599    0.946525
H      -0.751073   -0.475581   -0.312211
H       1.312815   -1.410083   -1.091882
H       4.220433   -0.338626   -1.353876
H       4.846478   -0.390661    0.300765
H       3.962846   -1.776918   -0.357734
H       3.587171    1.549914    1.297596
H       1.971762    2.012591    0.629287
H       2.630461   -0.422633    2.500655
H      -0.254914   -1.489878    2.777722
H      -0.573769   -2.315736    1.244812
H       0.957095   -2.580667    2.095055
