20

O       0.176491    1.090668   -0.658960
C       0.057482   -0.199117   -0.085013
C       0.491645   -0.311101    1.384592
C      -0.163712   -1.626693    1.850895
C      -1.465427   -1.767160    1.000854
C      -1.400113   -0.640503   -0.033175
C      -2.489439    0.400688   -0.119034
C      -2.283814   -0.587397   -1.244135
H       1.112078    1.290238   -0.754376
H       0.628006   -0.929849   -0.685694
H       1.578326   -0.301185    1.518480
H       0.077936    0.548393    1.924300
H       0.505867   -2.470406    1.655133
H      -0.364077   -1.629146    2.925108
H      -1.504177   -2.749477    0.517417
H      -2.365559   -1.686116    1.617392
H      -3.356611    0.273606    0.521475
H      -2.194258    1.427688   -0.295065
H      -1.852904   -0.207232   -2.164804
H      -3.015834   -1.377552   -1.379863
