14

F      -0.017508    0.022849    0.003448
C      -0.019623    1.358854    0.010580
C      -1.230139    2.033642    0.030896
C      -1.222909    3.430688    0.038223
C      -2.511333    4.162868    0.059923
O      -2.616834    5.366303    0.067781
C      -0.011563    4.131441    0.025207
C       1.187903    3.432630    0.004915
C       1.192111    2.036988   -0.002563
H      -2.160730    1.475696    0.040791
H      -3.410667    3.506815    0.068866
H      -0.039745    5.214563    0.031355
H       2.131020    3.968003   -0.005274
H       2.115724    1.470179   -0.018341
