21

C      -0.048398    1.515771    0.138380
C       0.023468    0.014161   -0.027969
C       0.680995   -0.673199   -1.210125
C       0.024794   -1.939035   -1.729986
C       1.349291    0.149402   -2.297619
C       1.357268   -0.722973    0.156933
O       2.523878    0.056963    0.262993
C       1.391538   -1.937390    0.929138
C       1.438572   -2.927361    1.612552
H       0.909720    1.991628   -0.078383
H      -0.803868    1.950572   -0.525154
H      -0.325300    1.775757    1.166058
H      -0.833522   -0.519862    0.375396
H      -0.767376   -1.687453   -2.444757
H       0.752649   -2.574420   -2.247090
H      -0.418174   -2.529138   -0.924573
H       1.899916    1.001337   -1.901182
H       2.057891   -0.469971   -2.858228
H       0.598523    0.517168   -3.006567
H       2.653098    0.259020    1.196559
H       1.482488   -3.809195    2.202381
