22

O       1.148024    1.093436   -0.333460
C       0.839294   -0.290628   -0.285660
C      -0.660454   -0.593319   -0.242072
C      -1.551099    0.370067    0.513273
C      -1.579132    0.350394   -0.990823
C      -1.066199   -2.052521   -0.266067
C      -0.097975   -3.179550   -0.091957
N      -1.118238   -2.928654    0.914559
C      -0.674950   -2.426848    2.206152
H       1.003001    1.400746   -1.232791
H       1.291919   -0.827052   -1.133089
H       1.326474   -0.660769    0.622954
H      -2.402737   -0.035044    1.047804
H      -1.065375    1.215794    0.986061
H      -1.147433    1.199192   -1.509466
H      -2.442214   -0.078975   -1.488618
H      -1.908815   -2.244074   -0.928504
H      -0.203863   -4.093962   -0.671286
H       0.931847   -2.929141    0.157619
H       0.175793   -1.729758    2.164838
H      -1.504972   -1.916275    2.703538
H      -0.383152   -3.279845    2.827318
