20

O      -0.000323    1.408537    0.247215
C       0.019949   -0.008632    0.160514
C      -1.414302   -0.480154   -0.050090
C      -1.509539   -1.988449   -0.188860
O      -1.090185   -2.690750    1.010436
C      -2.337864   -3.417413    1.104002
C      -2.883868   -2.659060   -0.098469
C      -4.220577   -2.100984   -0.378418
N      -3.687970   -3.240452   -1.158786
H       0.887338    1.707604    0.464232
H       0.649798   -0.347878   -0.679083
H       0.418511   -0.466108    1.077084
H      -2.029360   -0.147144    0.792617
H      -1.813608   -0.006398   -0.956431
H      -0.921704   -2.332215   -1.055883
H      -2.207044   -4.494130    0.939834
H      -2.839341   -3.250351    2.064713
H      -5.060425   -2.344778    0.267095
H      -4.280871   -1.123035   -0.849709
H      -3.360920   -2.923849   -2.069371
