15

N       0.121580   -1.169927   -0.124448
C       0.080880   -0.015866   -0.036572
C       0.020741    1.399960    0.092624
N       0.197463    2.302530   -1.072185
C       1.138166    2.417591    0.046273
C       0.437981    3.233060    1.172612
O      -0.433760    4.286804    0.755779
C      -1.584290    3.395708    0.748342
C      -0.711372    2.203478    1.200804
H       0.654836    1.772231   -1.813379
H       2.199439    2.253623   -0.096909
H       1.067021    3.481722    2.029985
H      -2.326626    3.710842    1.489425
H      -2.037707    3.319180   -0.242424
H      -0.981859    1.641131    2.090659
