17

O      -0.031643    1.321580   -0.282215
N       0.017560   -0.077552   -0.238207
C      -1.113317   -0.596647    0.089289
C      -2.347587    0.124547    0.378212
C      -3.400421   -0.471448    0.951784
C      -3.438660   -1.907931    1.391272
C      -2.289218   -2.740813    0.859893
N      -2.160076   -2.780881   -0.601755
C      -1.128377   -2.077813    0.201391
H       0.861272    1.544979   -0.563854
H      -2.375661    1.175877    0.122388
H      -4.296433    0.112460    1.147627
H      -3.435205   -1.943176    2.490734
H      -4.390901   -2.362401    1.084910
H      -2.087326   -3.657076    1.410377
H      -1.791370   -3.681360   -0.896606
H      -0.146178   -2.532897    0.278656
