17

C      -0.072382    1.449832    0.020672
N      -0.029306    0.001810    0.144704
C      -1.079461   -0.677954    0.072665
C      -1.180999   -2.185420    0.155643
C      -2.655657   -2.418990    0.502961
C      -3.326599   -1.188469   -0.149570
O      -2.354625   -0.145430   -0.089438
C      -3.716990   -1.440318   -1.550043
N      -4.029451   -1.655018   -2.641265
H       0.600107    1.753429   -0.788884
H      -1.068669    1.860126   -0.174789
H       0.320090    1.896003    0.941327
H      -0.932657   -2.617520   -0.820180
H      -0.478730   -2.584906    0.886602
H      -3.061583   -3.360074    0.131399
H      -2.816777   -2.370764    1.583123
H      -4.212035   -0.851056    0.396019
