21

C      -0.205335    1.549887    0.071066
C       0.039240    0.044494   -0.014062
N       1.174406   -0.409920   -0.849157
C       1.640588    0.344833   -1.988506
C       2.044389   -0.595263    0.312190
C       0.778414   -0.602067    1.226815
C       0.854729    0.162812    2.549688
C       0.294415   -1.959889    1.464904
N      -0.097718   -3.026408    1.679391
H       0.698752    2.113706    0.318891
H      -0.577685    1.922796   -0.888196
H      -0.964975    1.771541    0.827132
H      -0.899749   -0.455783   -0.277784
H       1.986722    1.366100   -1.746905
H       2.476787   -0.188535   -2.453212
H       0.843676    0.421892   -2.735390
H       2.659935   -1.500291    0.295661
H       2.688337    0.270155    0.545606
H       1.226202    1.177409    2.392651
H      -0.126159    0.221258    3.029977
H       1.534355   -0.345563    3.239898
