19

C      -0.143575   -1.186326    0.007321
C      -0.025877    0.005387    0.115864
C       0.075559    1.428328    0.250479
C       1.066215    2.034667    1.248311
C       1.306277    2.166313   -0.226793
O       2.288516    1.408785   -0.851644
C       3.550161    2.015359   -0.853837
C       4.516774    1.741776    0.268525
C       4.712108    1.112367   -1.098099
H      -0.236057   -2.238656   -0.096592
H      -0.860994    1.963857    0.124001
H       0.750667    2.903466    1.815267
H       1.685890    1.327381    1.784698
H       1.138135    3.143786   -0.681188
H       3.560270    3.007347   -1.306206
H       5.185877    2.534935    0.584067
H       4.178824    1.087219    1.062957
H       4.486202    0.056137   -1.189143
H       5.517497    1.464011   -1.732645
