17

O      -0.800526    1.361268    0.638368
C       0.153686    0.975721    0.011271
C       1.439452    1.754484   -0.129743
C       1.924113    2.455039    1.144948
O       2.675780    3.578283    0.703178
C       1.985155    4.105568   -0.420228
C       1.512195    2.885526   -1.211616
C       2.613128    1.999212   -1.829102
O       2.461164    0.995120   -0.800550
H       0.161138    0.007111   -0.535134
H       1.047689    2.760929    1.734989
H       2.577524    1.820026    1.746716
H       1.119862    4.710747   -0.106421
H       2.679499    4.745331   -0.972633
H       0.630438    3.065437   -1.825881
H       2.392818    1.594190   -2.823111
H       3.617977    2.436404   -1.824927
