13

O       0.034230    0.024695    0.472230
C      -0.008096    1.187397    0.133000
C      -1.292574    1.906153   -0.069106
C      -1.376572    3.042876   -0.775652
C      -0.191854    3.673777   -1.412631
O      -0.295752    4.489674   -2.302722
C       1.156977    3.231894   -0.908348
O       1.305124    3.249627    0.510770
C       1.249926    1.974118   -0.126549
H      -2.171417    1.408843    0.329470
H      -2.327632    3.522885   -0.984516
H       2.010310    3.587915   -1.480904
H       2.172162    1.397768   -0.119601
