17

C      -0.090677    1.462857    0.027951
C      -0.080140   -0.037802    0.009731
C       0.844656   -0.975119   -0.838869
O       1.942973   -0.952043    0.115606
C       0.739197   -1.005253    0.936693
C      -0.027242   -1.968974   -0.019568
C      -1.272225   -1.043033   -0.111438
C      -2.242891   -1.085927    1.027569
O      -3.442892   -1.075167    0.912081
H       0.935623    1.837072    0.100257
H      -0.541049    1.865916   -0.884931
H      -0.658529    1.849413    0.880428
H       1.065751   -0.956266   -1.905761
H       0.855286   -1.022546    2.019356
H       0.021228   -3.056744   -0.037014
H      -1.805630   -1.039396   -1.066161
H      -1.768750   -1.126784    2.037763
