20

C       0.064476    1.618472   -0.175311
C       0.042215    0.088727   -0.199442
C      -1.341807   -0.493340    0.146822
C      -1.390939   -1.990863    0.105421
C      -1.413134   -2.889118    1.133896
C      -1.421219   -2.752838    2.615499
O      -1.436282   -4.147117    0.648807
N      -1.429751   -4.107422   -0.743047
C      -1.401936   -2.834955   -1.044142
H       1.056604    2.005493   -0.426440
H      -0.648518    2.037020   -0.894461
H      -0.202278    2.004102    0.815140
H       0.345097   -0.272085   -1.190234
H       0.782035   -0.309339    0.505629
H      -1.639801   -0.142201    1.142155
H      -2.084013   -0.082279   -0.550034
H      -2.285846   -3.264346    3.050737
H      -0.521509   -3.194620    3.057048
H      -1.461684   -1.699905    2.901239
H      -1.395689   -2.544990   -2.086556
