20

C       0.029448    1.083040   -0.930943
C      -0.017618    0.189302    0.297264
O       0.924576    0.088741    1.051154
C      -1.318255   -0.531051    0.504973
N      -1.309038   -1.763912    1.327449
C      -2.007923   -0.598578    1.846205
C      -1.414763    0.047444    3.078150
C      -3.529657   -0.613730    1.835810
O      -3.986818   -1.333640    0.701443
H       0.977030    1.621611   -0.961585
H      -0.080313    0.479788   -1.839985
H      -0.804336    1.794675   -0.921803
H      -1.990641   -0.521193   -0.348313
H      -1.992134   -2.401878    0.921123
H      -0.326664    0.024593    3.027877
H      -1.745618    1.087787    3.175524
H      -1.734378   -0.494412    3.975539
H      -3.876147   -1.088279    2.767848
H      -3.905612    0.421302    1.833473
H      -4.940101   -1.434377    0.765122
