18

C      -0.031378    1.523164   -0.019838
C       0.007624    0.017347    0.016207
N       0.051932   -0.606702   -1.171550
C       0.086944   -1.937568   -1.163865
C       0.081594   -2.742736   -0.025614
C       0.123245   -4.246044   -0.105711
C       0.035081   -2.070813    1.202807
O       0.024401   -2.720649    2.394312
C      -0.002172   -0.678939    1.221662
H       0.850535    1.913145   -0.538065
H      -0.906876    1.866531   -0.580197
H      -0.066855    1.953699    0.983759
H       0.122552   -2.418454   -2.141123
H       1.008639   -4.664645    0.391797
H      -0.761072   -4.711469    0.350386
H       0.156316   -4.574660   -1.147411
H       0.053120   -3.670954    2.241128
H      -0.038097   -0.162550    2.173791
