18

C      -0.065896    1.556703   -0.241075
C      -0.135842    0.046650   -0.249354
C      -0.106267   -0.709305    1.053080
C      -1.383947   -0.632914    0.255934
N       1.293516    2.056427   -0.074816
N       1.798671    2.344887    1.119255
C       3.064327    2.677175    0.851763
C       3.272091    2.564748   -0.528176
N       2.132248    2.165254   -1.098136
H      -0.442880    1.973734   -1.178269
H      -0.647276    1.966745    0.587677
H       0.365958   -0.412252   -1.095594
H       0.427543   -1.652246    1.082551
H      -0.036979   -0.129996    1.967342
H      -2.184662   -0.007321    0.637252
H      -1.726919   -1.520502   -0.263338
H       3.737512    2.979114    1.637982
H       4.153162    2.753631   -1.120285
