20

O       0.309029    0.488684    1.038112
C      -0.268332    0.395274   -0.261920
C      -1.551358   -0.432462   -0.242301
O      -2.137714   -0.414091   -1.541843
C      -2.498023   -1.741845   -1.947746
C      -2.506056   -2.587436   -0.672967
C      -1.411873   -1.908176    0.134117
C      -0.116411   -2.565387    0.441839
N      -1.132285   -2.353020    1.497686
H      -0.211026    1.116391    1.549750
H      -0.481280    1.385306   -0.686012
H       0.476278   -0.086176   -0.901927
H      -2.252434    0.043997    0.468676
H      -3.469545   -1.694535   -2.449122
H      -1.758956   -2.119142   -2.669424
H      -3.464809   -2.498046   -0.149881
H      -2.313402   -3.646886   -0.854362
H       0.034005   -3.603229    0.155285
H       0.786256   -1.965751    0.485822
H      -0.835902   -1.547102    2.046197
