19

C       0.182701    1.650017    0.122545
C      -0.103221    0.154873   -0.046123
C       0.637080   -0.465422   -1.225913
C       2.204396   -0.610003   -1.150386
C       2.034553   -2.121365   -1.324203
O       1.213363   -2.600805   -0.276025
C       0.546274   -1.998843   -1.387553
C      -0.401030   -2.802943   -2.191469
O      -0.512089   -4.001492   -2.136638
H       1.250170    1.836767    0.282338
H      -0.122849    2.216839   -0.764104
H      -0.357035    2.059621    0.981486
H       0.176186   -0.388137    0.863469
H      -1.181754   -0.000107   -0.181564
H       0.354651    0.026344   -2.163951
H       2.720065   -0.128236   -1.983414
H       2.676594   -0.317017   -0.209184
H       2.672987   -2.841703   -1.823608
H      -1.009593   -2.189083   -2.894521
