17

C       0.089775   -1.163759   -0.136013
C       0.002941    0.036299   -0.073399
C      -0.037969    1.447121   -0.005105
C      -1.105894    2.241860    0.140908
C      -0.668703    3.676387    0.160968
O       0.749117    3.639487    0.013696
C       1.184495    2.300419   -0.092047
C       2.507965    1.931427    0.518732
C       2.352678    2.000024   -0.989787
H       0.146696   -2.222782   -0.190290
H      -2.134907    1.922609    0.232283
H      -1.114989    4.262867   -0.658015
H      -0.934098    4.183122    1.102578
H       3.049969    2.735863    1.002990
H       2.605765    0.957209    0.985331
H       2.344562    1.072591   -1.552087
H       2.792311    2.849680   -1.499882
