21

C       0.372278    1.330527    0.463360
C      -0.073453   -0.029507   -0.076866
C       0.765200   -0.550929   -1.274017
C       1.567182   -1.742781   -0.734061
C       3.003222   -1.462163   -0.168931
O       3.694537   -0.309300   -0.586030
C       2.445846   -1.523295    1.281892
C       1.049877   -1.933440    0.719033
O      -0.016820   -1.035085    0.942299
H       1.437615    1.342845    0.720122
H       0.195040    2.113940   -0.281355
H      -0.187646    1.581249    1.368502
H      -1.129464    0.054229   -0.361664
H       0.109479   -0.874262   -2.085516
H       1.420178    0.225152   -1.682077
H       1.512196   -2.606904   -1.397675
H       3.678435   -2.292721   -0.389850
H       3.221267    0.465247   -0.265885
H       2.930342   -2.244477    1.944799
H       2.422478   -0.554709    1.788789
H       0.716032   -2.931716    1.012534
