21

C      -0.091466    1.532728   -0.060165
C       0.039530    0.019624    0.040702
O       0.876992   -0.482873   -1.019572
C       1.870332   -1.187120   -0.311106
C       1.254394   -1.971107    0.882496
C       2.568799   -1.751786    1.662792
C       2.317407   -0.401081    0.956076
C       0.775626   -0.520201    1.277045
C       0.190959   -0.203236    2.634397
H       0.877449    2.021456    0.082100
H      -0.470433    1.810508   -1.047710
H      -0.789920    1.915752    0.691142
H      -0.954724   -0.443686   -0.048248
H       2.592216   -1.643619   -0.987525
H       0.635222   -2.868760    0.833588
H       2.507490   -1.761050    2.752458
H       3.437937   -2.323808    1.324776
H       2.927783    0.502720    0.992146
H       0.168952    0.877097    2.813142
H      -0.839549   -0.570080    2.708569
H       0.763291   -0.659820    3.446449
