18

C      -0.108020    1.560366    0.004999
C      -0.003354    0.043522    0.046480
C       1.119132   -0.593317   -0.821854
O       1.401380   -0.619349   -1.989065
N       1.712572   -1.137564    0.297577
C       0.733872   -0.617119    1.229448
C       0.984621   -0.071900    2.606564
C       0.134932   -1.321191    2.393755
O      -1.254483   -1.247898    2.510528
H       0.855442    2.031834    0.222072
H      -0.428161    1.886217   -0.988906
H      -0.840140    1.923537    0.733231
H      -0.972099   -0.426659   -0.142892
H       2.502177   -1.756047    0.410551
H       1.965809   -0.193449    3.055196
H       0.466497    0.843168    2.876946
H       0.580026   -2.272105    2.692348
H      -1.475275   -1.179626    3.445836
