17

O       0.069551    0.043703    0.528925
C       0.004660    1.176477    0.120595
N       1.008906    1.822198   -0.585412
C       2.413524    1.722680   -0.242335
C       3.377112    1.838464   -1.418411
N       3.242185    3.193470   -2.005101
C       1.960886    3.509416   -2.647321
C       2.204731    3.929365   -1.243151
C       1.685667    3.038465   -0.140426
H      -0.901439    1.806033    0.209876
H       2.668945    1.126911    0.629292
H       4.404122    1.731853   -1.054029
H       3.205895    1.069185   -2.177386
H       2.032461    4.238527   -3.450115
H       1.239957    2.712669   -2.803372
H       2.419387    4.962342   -0.985743
H       1.402377    3.465831    0.815989
