21

C      -0.011901    1.438505    0.013265
O       0.010144    0.024375   -0.010157
C       0.632210   -0.509834   -1.106238
C       1.936828   -0.286876   -1.824229
C       2.347052   -1.744520   -1.641982
C       0.830515   -2.050694   -1.437104
C       0.366800   -3.210851   -0.598258
C       0.217541   -1.760796   -2.842740
C       0.568803   -0.297324   -2.595562
H       1.005047    1.855656    0.023944
H      -0.550801    1.845980   -0.853847
H      -0.529869    1.733374    0.928021
H       2.562886    0.595353   -1.858408
H       2.849748   -2.262453   -2.467550
H       2.914702   -1.889239   -0.717700
H       0.817876   -3.187636    0.399387
H      -0.721140   -3.203751   -0.473194
H       0.643516   -4.162164   -1.068686
H       0.669782   -2.279033   -3.696806
H      -0.865356   -1.918134   -2.849114
H       0.263845    0.577781   -3.154701
