21

C      -0.287737    1.063833   -0.079777
O       0.650638    0.009648    0.039857
C       0.935694   -0.634628   -1.163088
C       1.501546   -2.013064   -0.976883
O       1.638381   -2.489517    0.326401
C       0.118222   -1.852952   -1.592096
C      -1.083065   -2.278568   -0.774714
C       0.013733   -2.082319   -3.087756
O      -0.003958   -3.453873   -3.455687
H       0.079897    1.845096   -0.760348
H      -1.256321    0.703342   -0.449702
H      -0.418144    1.492721    0.916227
H       1.338335    0.023411   -1.935125
H       2.306727   -2.342331   -1.628822
H       1.499320   -1.735448    0.913583
H      -0.968075   -2.006208    0.274772
H      -2.003841   -1.818304   -1.152594
H      -1.210111   -3.367054   -0.807190
H      -0.872258   -1.554960   -3.480318
H       0.888327   -1.660499   -3.595512
H      -0.782275   -3.857290   -3.059470
