15

C      -0.045697    1.429716    0.183540
N      -0.005025   -0.023397    0.028539
C      -1.223965   -0.695784   -0.019476
N      -2.321161   -0.050842    0.069799
N      -1.099459   -2.077214   -0.168210
N       0.036903   -2.785531   -0.265408
C       1.140396   -2.126627   -0.216863
C       1.231324   -0.665508   -0.063719
O       2.289214   -0.069348   -0.020814
H       0.984020    1.779422    0.202701
H      -0.594799    1.875956   -0.648301
H      -0.564358    1.689162    1.108852
H      -3.129275   -0.667111    0.019977
H      -1.941960   -2.626963   -0.210519
H       2.068214   -2.679294   -0.293443
