23

C       0.093254    1.560172   -0.207448
C      -0.086925    0.040208   -0.144065
C      -1.553797   -0.438019   -0.137591
C      -2.295170   -0.077179   -1.435325
C      -1.598813   -1.948355    0.077238
C      -1.341896   -2.649044    1.445652
C      -2.728669   -2.199491    1.965491
C      -2.869556   -2.733811    0.519771
O      -1.986337   -3.864303    0.893358
H       1.151944    1.829629   -0.140861
H      -0.292325    1.980761   -1.141010
H      -0.427314    2.055494    0.620144
H       0.435412   -0.427721   -0.989827
H       0.406775   -0.337207    0.760449
H      -2.062197    0.068999    0.692493
H      -3.331318   -0.429742   -1.409028
H      -2.319885    1.003136   -1.602447
H      -1.809655   -0.539345   -2.303106
H      -1.081037   -2.475574   -0.731387
H      -0.408948   -2.786285    1.994057
H      -3.157041   -2.846370    2.731855
H      -2.906398   -1.140571    2.161249
H      -3.771959   -2.972595   -0.044685
