19

O      -0.161210    1.370148   -0.101712
C      -0.005752   -0.034297   -0.026264
C       0.103560   -0.644358    1.404695
C      -1.413110   -0.342124    1.562316
C      -1.418082   -0.682837    0.030370
O      -2.419862   -0.293809   -0.844222
C      -1.083696   -2.176524    0.039864
C       0.091480   -2.146349    1.080669
O       1.353000   -2.524543    0.553822
H       0.704114    1.780108   -0.014634
H       0.698598   -0.402398   -0.779823
H       0.847790   -0.302048    2.122677
H      -2.001308   -0.978089    2.229802
H      -1.607951    0.711659    1.754615
H      -2.361108    0.666535   -0.921935
H      -1.933179   -2.786068    0.359397
H      -0.739609   -2.531240   -0.936285
H      -0.144231   -2.741535    1.973811
H       1.299131   -3.444946    0.278591
