15

C       0.061193    1.521467    0.043214
C       0.069882    0.030971   -0.027286
C       0.004147   -0.781513   -1.118036
O      -0.086943   -0.585699   -2.453783
N       0.046748   -2.095096   -0.655742
C       0.006327   -3.265009   -1.416255
O       0.048287   -4.366063   -0.935349
C       0.138626   -1.996791    0.730608
N       0.153876   -0.761490    1.122510
H       0.973865    1.901326    0.514712
H      -0.010094    1.975195   -0.951929
H      -0.786533    1.885622    0.633423
H      -0.106108    0.361329   -2.626088
H      -0.067647   -3.054518   -2.494684
H       0.187404   -2.882994    1.342058
