16

O      -0.817162    1.403392   -0.192393
C       0.303225    1.015907    0.018078
C       1.545572    1.901014    0.105015
O       2.631947    1.385180    0.322771
N       1.352268    3.217266   -0.107445
C       0.194373    4.122080   -0.283977
C       1.165720    5.307382   -0.153583
C       1.955557    5.206120    1.127752
C       2.307870    4.303727   -0.022117
H       0.560416   -0.051090    0.178866
H      -0.254078    4.023056   -1.275680
H      -0.585308    4.024519    0.475263
H       1.122011    6.207200   -0.749787
H       2.652212    6.020318    1.300160
H       1.509441    4.787975    2.025827
H       3.279390    4.236031   -0.492521
