21

C      -0.012515    1.550118    0.003198
C       0.043754    0.020392    0.083069
C       0.746379   -0.444100    1.364363
C      -1.374705   -0.581682   -0.039289
C      -1.380136   -2.071828   -0.179787
N      -0.852455   -2.754932   -1.174953
C      -1.079426   -4.080359   -0.884940
C      -1.753248   -4.207229    0.299235
N      -1.938520   -2.914231    0.741331
H       0.991836    1.983462    0.049013
H      -0.480274    1.885382   -0.928521
H      -0.590763    1.968985    0.836293
H       0.615064   -0.353921   -0.775005
H       0.809050   -1.535277    1.414176
H       1.765820   -0.048753    1.417973
H       0.210115   -0.093898    2.255848
H      -1.974047   -0.291035    0.834079
H      -1.868190   -0.146834   -0.916416
H      -0.747017   -4.865910   -1.546624
H      -2.111547   -5.058371    0.853554
H      -2.402999   -2.638076    1.590064
