21

C      -0.233113    1.554402   -0.069635
C       0.128759    0.072008    0.093041
C       0.734595   -0.529059   -1.159914
O       1.918510    0.090216   -1.591869
C       0.720641   -1.995580   -1.441574
C       0.130630   -3.032794   -0.515200
C      -0.166120   -1.062585   -2.287947
C      -1.591400   -1.078844   -2.167719
C      -2.792019   -1.087708   -2.069667
H       0.650554    2.165139   -0.286313
H      -0.958068    1.693846   -0.877835
H      -0.674995    1.948689    0.849821
H       0.847667   -0.047096    0.912953
H      -0.769956   -0.485861    0.367400
H       1.706183    0.996072   -1.842482
H       1.606891   -2.320955   -1.979072
H      -0.828585   -2.716276   -0.100054
H      -0.043301   -3.968636   -1.056125
H       0.811404   -3.247711    0.315402
H       0.211652   -0.860623   -3.285986
H      -3.850532   -1.093360   -1.989718
