17

N      -0.008797   -1.088078    0.055238
C      -0.005637    0.067673    0.011288
C      -0.012265    1.510513   -0.077648
C       0.610530    2.107531   -1.337106
C       1.334442    2.207378   -0.003996
C       1.353447    3.497488    0.725394
C       0.232903    4.113640    1.095803
C      -1.130229    3.551092    0.808710
N      -1.113945    2.092958    0.646852
H       1.000022    1.427975   -2.086514
H       0.160611    3.015533   -1.722198
H       2.201850    1.569055    0.119883
H       2.324798    3.932296    0.940052
H       0.267709    5.072492    1.602567
H      -1.808203    3.781722    1.639362
H      -1.548793    4.071047   -0.073734
H      -1.992032    1.775050    0.253637
