16

O      -0.063334    0.018323   -0.344897
C      -0.075331    1.212274   -0.233249
C      -1.098457    2.303087    0.066068
C      -0.628305    3.046417    1.317640
C       0.067539    3.273090    0.011685
N       0.958150    2.156695   -0.320840
C       2.356258    1.948739    0.022288
C       2.704488    2.237477    1.415805
C       2.997190    2.489000    2.553977
H      -2.093270    2.401566   -0.342167
H      -1.299263    3.832842    1.652167
H      -0.118601    2.511486    2.111390
H       0.132194    4.214243   -0.517802
H       2.563661    0.897053   -0.206662
H       2.989408    2.549421   -0.642114
H       3.259279    2.701966    3.561035
