23

O       0.099584    1.392502   -0.014326
C       0.046008   -0.000333    0.201883
C      -1.380452   -0.528845    0.029899
O      -1.888668   -0.071723   -1.232946
C      -1.485570   -2.044836    0.183625
C      -2.922826   -2.575513    0.091246
C      -3.006362   -4.082860    0.199713
C      -3.034946   -4.752483    1.552103
C      -4.268598   -4.749644    0.681363
H      -0.495315    1.553801   -0.758841
H       0.714980   -0.543274   -0.492678
H       0.406521   -0.193764    1.218377
H      -2.021529   -0.032077    0.768627
H      -1.441900   -0.575786   -1.924208
H      -0.863336   -2.523928   -0.588096
H      -1.045767   -2.334625    1.146500
H      -3.525637   -2.122180    0.889688
H      -3.368685   -2.239178   -0.852273
H      -2.459825   -4.616816   -0.574972
H      -2.498812   -5.685739    1.684676
H      -3.037291   -4.115464    2.431255
H      -5.095268   -4.111920    0.977788
H      -4.573580   -5.680592    0.216268
