19

O       0.073641    1.434192   -0.047001
C       0.028623    0.006456   -0.016651
C       0.759176   -0.530782    1.191963
C       0.105046   -1.090172    2.207517
C      -1.392982   -1.212744    2.214453
O      -2.011329   -0.394689    1.232303
C      -1.392783   -0.521871   -0.025951
C      -2.283630   -0.294238   -1.197780
C      -1.785175   -1.694734   -0.891064
H      -0.405053    1.733449    0.735200
H       0.537995   -0.307363   -0.934592
H       1.837906   -0.407630    1.213314
H       0.631248   -1.481917    3.074500
H      -1.687437   -2.268718    2.078914
H      -1.802105   -0.889547    3.178372
H      -3.324136   -0.080447   -0.982139
H      -1.872883    0.236938   -2.048963
H      -1.038992   -2.140136   -1.540458
H      -2.502774   -2.393917   -0.476458
