17

N       0.138127    1.333189   -0.525279
C       0.056634    0.153952   -0.130503
O       1.091519   -0.776970    0.214169
C       0.045913   -1.537854    0.955112
C      -0.897839   -2.797495    0.992867
N      -2.017067   -1.708779    1.048620
C      -1.728652   -1.106588    2.387046
C      -0.182441   -0.966189    2.371990
C      -1.001728   -0.945607    0.115294
H       1.109083    1.640498   -0.605609
H      -0.964655   -3.364720    0.066960
H      -0.881897   -3.448514    1.870831
H      -2.245964   -0.148980    2.468836
H      -2.108234   -1.773257    3.165031
H       0.327353   -1.552907    3.140120
H       0.153800    0.069859    2.449130
H      -1.101599   -1.449855   -0.848426
