15

O      -0.237249    0.053895    0.279385
C      -0.014373    1.187751   -0.047501
C       1.381360    1.737919   -0.301097
N       1.337625    2.820884   -1.270038
C       2.447321    3.650611   -1.352601
C       3.627685    3.738041   -0.642548
N       4.338907    4.803876   -1.113735
N       3.686915    5.378459   -2.072542
N       2.523931    4.686369   -2.224858
H      -0.823512    1.942015   -0.173968
H       1.730046    2.155384    0.653405
H       2.056219    0.910861   -0.562254
H       0.994702    2.522217   -2.174916
H       4.002004    3.110964    0.148735
H       1.842751    4.999938   -2.897179
