21

C      -0.442358    1.470843   -0.018667
C       0.065999    0.027849    0.009151
O       0.767481   -0.171574   -1.216841
C       1.090661   -1.505383   -1.463650
C       2.330288   -1.753985   -2.268066
C       2.312159   -2.055283   -0.781273
C       3.020167   -1.126813    0.196255
C       2.130578   -0.704981    1.348050
C       0.884722   -0.240080    1.251935
H       0.401607    2.165684   -0.052996
H      -1.062686    1.631159   -0.904248
H      -1.037312    1.690053    0.872404
H      -0.811699   -0.645363    0.026507
H       0.227756   -2.155921   -1.614938
H       2.327993   -2.576459   -2.974690
H       2.883066   -0.878400   -2.591194
H       2.278792   -3.100183   -0.485904
H       3.918344   -1.617780    0.585102
H       3.371384   -0.236255   -0.336990
H       2.556617   -0.794595    2.345111
H       0.354607    0.006236    2.171534
