18

C      -0.006377    1.545762   -0.037604
C      -0.002206    0.048576    0.014490
C       0.031591   -0.799590   -1.073008
N       0.030217   -2.125401   -0.623803
C      -0.011604   -2.076619    0.728693
C      -0.035087   -0.792398    1.173045
C       0.006259   -0.840888    2.677200
C      -0.188377   -2.379664    2.911190
O       0.012022   -3.076965    1.638893
H       0.863128    1.974060    0.476020
H       0.012191    1.903865   -1.071200
H      -0.897514    1.967364    0.443207
H       0.040779   -0.582195   -2.128650
H       0.029649   -2.948456   -1.198725
H       0.959622   -0.489941    3.094663
H      -0.787664   -0.278592    3.181073
H       0.518210   -2.806381    3.625598
H      -1.207996   -2.600835    3.243595
