21

C      -0.028582    1.529138    0.023102
C       0.012601    0.019540   -0.004799
C       0.954431   -0.783320   -0.949002
C       0.741393   -1.907437    0.083375
C       0.693082   -0.824360    1.197171
C      -0.196534   -1.389447    2.263857
C      -1.031729   -2.255303    1.676634
C      -0.797422   -2.183853    0.178340
C      -1.300250   -0.747732   -0.239727
H       0.969226    1.953875    0.178697
H      -0.419345    1.935597   -0.917435
H      -0.675883    1.889116    0.831232
H       0.631526   -0.936607   -1.983506
H       1.983345   -0.411904   -0.932575
H       1.398689   -2.774405    0.168897
H       1.649213   -0.395456    1.500943
H      -0.175193   -1.108242    3.309505
H      -1.842200   -2.803149    2.142468
H      -1.195736   -3.005379   -0.417480
H      -2.136682   -0.409909    0.377164
H      -1.599401   -0.694516   -1.291599
