16

C      -0.061605    1.558070    0.082675
C       0.028796    0.067291   -0.035836
C      -0.763662   -0.784973   -1.031763
C      -1.038794   -1.700187    0.170335
O      -1.684831   -2.676773    0.371919
N      -0.335571   -0.858268    1.137214
C       1.084305   -0.739872    0.619834
C       1.761024   -1.841670   -0.004492
C       2.343985   -2.758360   -0.519602
H       0.462026    2.042580   -0.748814
H      -1.105516    1.887155    0.063107
H       0.387905    1.903805    1.017458
H      -1.679720   -0.304872   -1.385909
H      -0.223875   -1.218418   -1.875736
H       1.685747   -0.204837    1.350937
H       2.854288   -3.573967   -0.970116
