18

O      -0.877740    1.362087    0.622017
C       0.095750    1.168391   -0.059645
C       1.337750    2.031739   -0.047115
C       1.383167    2.889832   -1.320102
C       0.392358    4.091863   -1.308242
C       1.558695    5.035051   -0.912247
C       2.562523    3.929780   -1.369023
C       3.745050    3.681302   -0.563757
N       4.671623    3.469039    0.095316
H       0.123720    0.327321   -0.791330
H       1.321556    2.657030    0.850284
H       2.224675    1.386881   -0.008572
H       1.335488    2.244303   -2.201805
H      -0.000333    4.311939   -2.303837
H      -0.443439    4.016180   -0.610625
H       1.637629    5.994013   -1.425929
H       1.613214    5.208001    0.164027
H       2.871900    4.093839   -2.405164
