18

C      -0.112471    1.521903   -0.109133
C       0.107419    0.044661   -0.012694
C       0.269504   -0.898901   -1.141098
C       1.181623   -1.988084   -0.821712
C       1.333558   -2.013690    0.532199
C       0.327408   -2.951587    1.217282
C      -0.543615   -1.630250    1.141545
C       0.715234   -0.740467    1.146944
N      -0.992193   -0.978687   -0.169207
H       0.842635    2.047461   -0.221271
H      -0.742307    1.765654   -0.969295
H      -0.605148    1.905015    0.790990
H      -0.047558   -0.626853   -2.140947
H       1.198405   -2.890742   -1.425430
H       0.021132   -3.841690    0.665997
H       0.497498   -3.192728    2.273191
H      -1.346320   -1.507720    1.871370
H       1.140167   -0.294997    2.043512
