18

O      -0.007941   -0.024411   -0.242750
C       0.014207    1.174732   -0.074004
C      -1.262277    1.987930    0.148890
C      -1.287590    3.269774   -0.684096
C      -1.013174    4.604269   -0.078198
N      -0.033719    3.971829   -0.956952
C       1.203682    3.430191   -0.448511
C       1.468282    3.046486    0.974619
C       1.281694    1.954054   -0.079450
H      -2.108958    1.344737   -0.096245
H      -1.334281    2.218477    1.218846
H      -1.945770    3.222498   -1.549140
H      -1.478820    5.503725   -0.472458
H      -0.812279    4.632791    0.990977
H       2.059778    3.813357   -0.995876
H       2.472450    3.187870    1.358097
H       0.692098    3.164061    1.721026
H       2.150511    1.381888   -0.381662
