19

C      -0.138578    1.525874   -0.089093
C       0.049490    0.016513   -0.127403
C       1.272030   -0.579976   -0.923462
C       1.737677   -1.255985    0.368662
N       1.965590   -0.156003    1.343538
C       0.598513   -0.683786    1.134894
C      -0.209981   -1.272066    2.262631
C      -0.777991   -0.255342    3.154742
N      -1.227935    0.550378    3.849793
H       0.773046    2.012777    0.266264
H      -0.371665    1.913302   -1.086640
H      -0.958771    1.806293    0.580036
H      -0.872278   -0.480617   -0.448566
H       0.969251   -1.280945   -1.703909
H       1.976071    0.148021   -1.333954
H       2.245496   -2.206218    0.485655
H       2.332121   -0.575902    2.198193
H      -1.035773   -1.871824    1.860510
H       0.410076   -1.951553    2.860447
