23

C      -0.447799    1.291444   -0.110500
O      -0.101978   -0.075850   -0.109724
C       0.787739   -0.560586   -1.142821
C       0.265495   -0.217256   -2.546238
C       2.194569    0.007559   -0.926016
C       0.696195   -2.078845   -0.936289
O      -0.634244   -2.523700   -0.959182
C       1.661745   -3.040316   -1.549135
C       1.639665   -2.846283   -0.042877
H       0.431129    1.948707   -0.063214
H      -1.049198    1.576577   -0.984051
H      -1.046494    1.458209    0.789017
H       0.254917    0.861522   -2.724400
H       0.916443   -0.670864   -3.299114
H      -0.741400   -0.616671   -2.682675
H       2.506532   -0.115891    0.113494
H       2.924366   -0.483637   -1.575544
H       2.221611    1.074248   -1.166163
H      -1.098146   -1.938529   -0.345419
H       1.233209   -3.953034   -1.947042
H       2.510893   -2.658938   -2.105359
H       2.480436   -2.346371    0.423381
H       1.189099   -3.633110    0.550758
