19

C       0.639296    1.455447    0.207614
O       0.794538    0.055345    0.212585
C      -0.196832   -0.602184    0.969687
C       0.076205   -2.091357    0.921019
C       1.285794   -2.698503    1.702867
C       0.385603   -3.912733    2.138197
O       0.450930   -4.458667    3.418513
C      -0.792041   -2.994027    1.808019
O      -1.847530   -2.840749    2.360934
H       0.703069    1.877038    1.223170
H       1.447256    1.871248   -0.398928
H      -0.325832    1.758034   -0.228392
H      -0.188769   -0.248916    2.015149
H      -1.202613   -0.392837    0.568922
H       0.075289   -2.435895   -0.118694
H       2.179989   -2.937825    1.128965
H       1.549376   -2.083471    2.567026
H       0.483346   -4.715793    1.396128
H      -0.250283   -4.049356    3.940723
