19

C       0.031852    1.535746    0.096029
C       0.014387    0.007558    0.013279
C       0.754346   -0.516784   -1.200351
O       2.130131   -0.212830   -1.121054
C       2.752594   -1.126385   -1.999828
C       1.884923   -2.413950   -1.853181
O       0.677178   -1.934898   -1.253932
C       1.648132   -3.093169   -3.123006
C       1.475533   -3.650872   -4.173337
H       1.056993    1.910424    0.159186
H      -0.437200    1.987612   -0.784941
H      -0.514148    1.882670    0.977680
H       0.476449   -0.439024    0.899878
H      -1.013752   -0.365979   -0.041264
H       0.338284   -0.095045   -2.135480
H       2.728056   -0.768423   -3.038228
H       3.788514   -1.270458   -1.688450
H       2.347048   -3.114490   -1.147143
H       1.316467   -4.149490   -5.097583
