17

C      -0.133856    1.626115    0.180807
C       0.033160    0.117648    0.019872
O       0.754684   -0.386732    1.161562
C       2.005123   -0.858237    0.986589
O       2.666882   -1.279521    1.885582
C      -1.298235   -0.606588   -0.071624
C      -1.449448   -2.025863    0.321747
N      -2.049128   -0.953575    1.140713
H       0.839980    2.120634    0.231574
H      -0.686835    2.036521   -0.669296
H      -0.688855    1.853452    1.094983
H       0.616640   -0.094825   -0.887526
H       2.336960   -0.809322   -0.068754
H      -1.921238   -0.224311   -0.878707
H      -2.160930   -2.657573   -0.201998
H      -0.580452   -2.543587    0.716333
H      -1.452536   -0.799031    1.951622
