16

O       0.457282    0.319752   -1.050676
C       0.264622    1.354245   -0.439156
C       1.327344    1.966797    0.344839
C       2.203190    2.481497    0.991052
C      -1.015911    2.123478   -0.413361
C      -1.870568    2.376605   -1.615141
C      -1.914628    1.208952   -2.597449
C      -2.405530    0.359324   -1.399520
N      -2.393070    1.557081   -0.472028
H       2.987312    2.921691    1.558165
H      -0.993451    2.948972    0.292005
H      -2.222171    3.386365   -1.807703
H      -2.672601    1.346674   -3.370605
H      -0.969290    0.920072   -3.058313
H      -3.440731    0.026238   -1.493402
H      -1.773867   -0.467307   -1.079937
