18

N      -0.222868    1.342888    0.267733
C      -0.171624   -0.083128    0.060690
C      -1.454260   -0.833721   -0.093169
C      -2.766284   -0.073467    0.037851
O      -2.901384    0.467822    1.338945
C      -0.537015   -0.675710   -1.320021
N      -0.912812    0.288722   -2.324001
C       0.181147   -1.845859   -1.763905
N       0.771237   -2.769201   -2.139814
H       0.716097    1.718535    0.349855
H      -0.649459    1.781034   -0.546517
H       0.631446   -0.573153    0.599257
H      -1.462408   -1.832954    0.329616
H      -2.837586    0.702678   -0.735396
H      -3.610620   -0.754756   -0.106124
H      -2.140506    1.053876    1.459873
H      -0.111321    0.529973   -2.899191
H      -1.626444   -0.084039   -2.942583
