16

C      -0.062638    1.535162    0.011073
C      -0.001576    0.018919    0.002864
O      -1.336971   -0.473879    0.010634
C      -1.468172   -1.822663    0.004731
C      -2.680602   -2.487690    0.010615
N      -2.369066   -3.810657    0.001476
N      -1.053139   -4.054449   -0.009901
C      -0.488561   -2.844417   -0.007990
H       0.948493    1.952742    0.005328
H      -0.595913    1.903691   -0.869562
H      -0.582115    1.894665    0.903605
H       0.524202   -0.348508   -0.890649
H       0.537873   -0.357568    0.884376
H      -3.693859   -2.123113    0.020249
H      -3.008089   -4.586643    0.002406
H       0.586185   -2.755427   -0.015768
