16

O      -0.979063    1.145503   -0.617161
C      -0.088492    0.187526   -0.083487
C      -0.945381   -0.950426    0.493573
C      -1.405956   -1.748711   -0.736019
C      -0.305150   -1.565927   -1.779239
O      -0.204655   -2.115839   -2.837039
C       0.708703   -0.521168   -1.211358
C       1.247234    0.391180   -2.202947
N       1.638256    1.175762   -2.956698
H      -0.471315    1.811298   -1.096772
H       0.581298    0.631241    0.663745
H      -0.330409   -1.569407    1.155031
H      -1.770054   -0.543388    1.080573
H      -1.588576   -2.810486   -0.556084
H      -2.322346   -1.326972   -1.162524
H       1.531060   -1.100131   -0.768367
