20

C      -0.012788    1.534802   -0.178859
C      -0.064981    0.054704    0.116748
N       1.181129   -0.714389   -0.024832
C       0.553582   -0.596522    1.306086
C       1.333915    0.164363    2.336605
O       0.485656    0.764791    3.351027
C       1.199049    0.108785    4.416250
C       2.095769   -0.650757    3.413303
O       1.868943   -2.036904    3.297174
H       0.937910    1.971493    0.133483
H      -0.122082    1.712841   -1.254133
H      -0.822062    2.060988    0.337883
H      -0.976843   -0.430853   -0.230663
H       1.001421   -1.635371   -0.413990
H       0.040329   -1.468640    1.700488
H       1.963931    0.917737    1.851186
H       1.714380    0.823795    5.071005
H       0.547933   -0.537954    5.017593
H       3.166697   -0.425963    3.480838
H       2.331742   -2.481397    4.013953
