21

C       0.078318    1.653333   -0.219538
C       0.041137    0.125812   -0.086124
C      -1.403941   -0.322420   -0.448952
C      -2.334623   -0.113511    0.722841
O      -3.096333    0.812780    0.846138
C       1.226719   -0.734825   -0.665217
C       2.125477   -0.183421    0.480439
C       0.764897   -0.544997    1.149069
C       0.840804   -1.868551    0.332686
H       0.014320    1.941585   -1.275191
H      -0.787431    2.094911    0.283890
H       0.972340    2.116146    0.198015
H      -1.763946    0.277891   -1.289292
H      -1.445705   -1.375417   -0.738101
H      -2.249677   -0.886722    1.521673
H       1.494214   -0.845496   -1.718380
H       2.968304   -0.818380    0.763746
H       2.429675    0.860639    0.442744
H       0.506451   -0.435504    2.204213
H      -0.079175   -2.427116    0.163861
H       1.651176   -2.547320    0.608360
