19

C      -0.023229    1.543992    0.098848
C      -0.099909    0.056110    0.008924
C      -0.166494   -0.713153   -1.081982
C      -0.119029   -2.170015   -0.725848
C      -0.703103   -3.228837   -1.615258
O       1.132629   -2.524791   -0.049934
C      -0.032249   -2.229089    0.736398
C       0.009899   -0.798287    1.277299
O       1.200273   -0.528331    2.002741
H       0.875631    1.839794    0.651280
H      -0.002660    2.013817   -0.887781
H      -0.877639    1.949187    0.656400
H      -0.210934   -0.359583   -2.106502
H      -0.193996   -3.242864   -2.585194
H      -0.596622   -4.216138   -1.159964
H      -1.765421   -3.035414   -1.797633
H      -0.414720   -3.048014    1.339989
H      -0.816647   -0.603957    1.971520
H       1.911550   -0.903707    1.465396
