17

C      -0.095950    1.252872    1.408647
C       0.090938   -0.118887    0.807852
C       0.172647   -0.306453   -0.671385
N       1.352123   -0.499781    0.159360
C       2.418446    0.381485    0.065054
N       3.128325    0.745909    1.128657
N       4.093986    1.518074    0.560049
C       3.929061    1.574543   -0.771844
N       2.872800    0.869936   -1.129994
H       0.258090    2.038541    0.735540
H      -1.157626    1.428840    1.610419
H       0.453739    1.345213    2.350415
H      -0.330361   -0.932198    1.395878
H      -0.215756   -1.205787   -1.141148
H       0.144076    0.585176   -1.292698
H       4.800727    1.939451    1.139020
H       4.584114    2.126984   -1.428949
