10

F       0.003601    0.034729    0.126598
C      -0.004016    1.355134    0.038781
C      -1.160654    2.032658   -0.026991
O      -1.222715    3.372544   -0.117060
N       0.046775    4.117797   -0.143460
N       1.091511    3.494561   -0.083299
C       1.249601    2.063971    0.014260
N       2.400063    1.528705    0.070275
H      -2.134725    1.556149   -0.012864
H       3.121711    2.251140    0.035360
