18

C      -0.020011    1.507057    0.029386
C      -0.067331    0.012664   -0.098216
C       0.488060   -0.794125   -1.290340
C      -0.367669   -1.945471   -0.710582
C       0.126456   -2.142589    0.734570
C      -0.956815   -1.354888    1.372674
N       0.388553   -0.729602    1.164878
C      -1.348404   -0.873827   -0.061488
O      -2.549494   -0.448603   -0.573941
H       1.016253    1.850520    0.119617
H      -0.471138    1.987085   -0.844123
H      -0.562094    1.838178    0.920898
H       0.083998   -0.424810   -2.237539
H       1.570386   -0.929467   -1.364940
H      -0.700496   -2.807641   -1.286941
H       0.757924   -2.922550    1.142440
H      -1.441802   -1.410009    2.340598
H      -3.145868   -1.202485   -0.648433
