18

C      -0.073964    1.425304    0.111167
N      -0.018958   -0.011803    0.009704
C      -1.050905   -1.037436    0.096873
C       0.093801   -2.102528   -0.022470
C       1.039853   -0.878894   -0.092774
O       2.224358   -0.703840   -0.196541
C      -1.826860   -1.081834    1.409109
C      -3.011058   -2.028277    1.444162
O      -1.504215   -0.400358    2.354005
H       0.951362    1.795884    0.041794
H      -0.661449    1.862198   -0.705591
H      -0.504609    1.730405    1.069152
H      -1.747136   -1.046827   -0.752795
H       0.243805   -2.726502    0.860907
H       0.067711   -2.723249   -0.918969
H      -2.744642   -3.011546    1.041846
H      -3.376958   -2.126450    2.466583
H      -3.814829   -1.633011    0.811325
