21

C       0.587138    0.217811   -0.695267
C       0.094283   -0.054195    0.724799
O       0.110000    1.129858    1.513885
C      -1.304693   -0.712755    0.785022
C      -1.388969   -2.060792    0.128858
C      -1.034383   -3.247388    0.618817
C      -1.289058   -4.328795   -0.390467
O      -1.805491   -3.654900   -1.536647
C      -1.932658   -2.265697   -1.265535
H       1.555577    0.724190   -0.662750
H       0.700435   -0.709632   -1.263669
H      -0.117763    0.861797   -1.237282
H       0.802306   -0.725807    1.224077
H      -0.437013    1.786891    1.068931
H      -1.572611   -0.789227    1.843402
H      -2.029389   -0.026400    0.324004
H      -0.633146   -3.443803    1.605857
H      -0.376187   -4.880018   -0.666869
H      -2.017008   -5.074806   -0.030954
H      -2.990481   -1.957326   -1.332329
H      -1.386064   -1.687987   -2.027640
