23

C      -0.105143    1.658519   -0.222113
C      -0.010323    0.133218   -0.316034
C      -1.290011   -0.558643    0.154985
O      -2.401615   -0.103180   -0.632697
C      -2.918314   -1.210142   -1.348262
O      -1.944849   -2.215934   -1.324315
C      -1.345705   -2.095296   -0.033141
C      -0.043654   -2.879423    0.008100
C      -0.260450   -4.385445   -0.170081
H       0.810252    2.133191   -0.587852
H      -0.945772    2.026781   -0.815359
H      -0.258578    1.982288    0.813718
H       0.190145   -0.166119   -1.351367
H       0.830001   -0.224797    0.291698
H      -1.483849   -0.296067    1.204026
H      -3.853390   -1.555568   -0.869960
H      -3.113874   -0.927632   -2.388244
H      -2.040127   -2.508252    0.720194
H       0.624980   -2.504078   -0.773020
H       0.445654   -2.682183    0.969985
H      -0.895553   -4.790782    0.625402
H      -0.747427   -4.594044   -1.126172
H       0.691432   -4.923932   -0.145001
