18

C      -0.240777    1.574433    0.263556
N      -0.176065    0.122489    0.360977
C       0.953773   -0.563277   -0.247190
C       0.814040   -0.509912    1.247705
C       1.802471    0.286528    2.073619
C       0.310949   -1.762887    1.954740
N      -0.901034   -2.198128    1.521480
O       0.974394   -2.324467    2.808196
H       0.740621    2.068149    0.232848
H      -0.781417    1.837698   -0.650860
H      -0.800564    1.971149    1.116012
H       0.723951   -1.475011   -0.791977
H       1.747078    0.045139   -0.680519
H       2.328997    1.037009    1.481270
H       1.303034    0.789727    2.908599
H       2.531907   -0.404787    2.499104
H      -1.448913   -1.578999    0.943900
H      -1.325415   -2.977226    1.995378
