17

C       0.054905    1.473135    0.030511
O       1.299322    2.163114    0.094257
C       2.222059    1.766638    1.087181
O       2.795240    0.510236    0.788555
C       2.002026   -0.479205    1.443040
C       1.467219    0.254795    2.663481
C       1.594692    1.560602    2.453449
C       0.839738   -0.910134    0.564767
C       0.042328   -0.039407   -0.056270
H      -0.575942    1.758229    0.890807
H      -0.427732    1.881780   -0.861897
H       3.010570    2.521632    1.039331
H       2.652398   -1.325009    1.684132
H       0.987401   -0.243434    3.495584
H       1.249850    2.372451    3.079620
H       0.659477   -1.976432    0.457506
H      -0.776615   -0.430399   -0.657164
