17

C      -0.040693    1.566638    0.048714
C       0.001692    0.036912    0.001968
C       0.710064   -0.509588   -1.242217
C       0.758412   -2.040245   -1.298786
C       1.467781   -2.575545   -2.545500
H       0.969830    1.990520    0.048876
H      -0.567859    1.974470   -0.821121
H      -0.552482    1.927270    0.946618
H       0.504964   -0.343934    0.900712
H      -1.021666   -0.359901    0.038541
H       0.207194   -0.128924   -2.142623
H       1.734474   -0.112540   -1.280322
H       1.261419   -2.419260   -0.399122
H      -0.265448   -2.435639   -1.260865
H       0.966081   -2.240813   -3.460425
H       2.504707   -2.224190   -2.592098
H       1.486840   -3.669934   -2.558322
