19

C      -0.060550    1.537420    0.277144
C      -0.059780    0.016942    0.151720
O       0.192247   -0.624635    1.396909
C      -1.357221   -0.514601   -0.491994
O      -1.543744    0.050131   -1.790962
C      -1.392060   -2.027621   -0.530997
C      -2.284601   -2.793419    0.370506
N      -2.585858   -2.701032   -1.066325
H       0.894418    1.888771    0.676520
H      -0.240574    2.002924   -0.694476
H      -0.857738    1.865614    0.957282
H       0.776045   -0.292639   -0.491402
H      -0.457431   -0.301535    2.031077
H      -2.216440   -0.150198    0.090549
H      -0.957616   -0.413154   -2.400031
H      -0.455552   -2.493242   -0.838545
H      -1.989805   -3.779388    0.717634
H      -2.898307   -2.233912    1.072598
H      -3.312415   -2.007837   -1.233898
