19

O       0.155244    1.390117    0.073874
C       0.048973    0.011641    0.246778
C      -1.326497   -0.500911   -0.145966
O      -2.166206    0.291202   -0.525084
C      -1.583153   -1.989383   -0.076057
C      -2.940116   -2.365569    0.577379
C      -3.522276   -3.446591   -0.371515
O      -2.480835   -3.794287   -1.275450
C      -1.731312   -2.619595   -1.488278
H      -0.719581    1.670271   -0.241220
H       0.802430   -0.530897   -0.350384
H       0.227945   -0.283114    1.296132
H      -0.755813   -2.482861    0.442307
H      -2.793521   -2.744019    1.590936
H      -3.593296   -1.492546    0.627455
H      -3.833320   -4.359245    0.142563
H      -4.386611   -3.046493   -0.921687
H      -2.261235   -1.914928   -2.148728
H      -0.780171   -2.898150   -1.947977
