16

C       0.009589    1.549142    0.019156
C      -0.026891    0.054635   -0.000597
C      -1.085089   -0.781153    0.024018
N      -2.424639   -0.483413    0.119031
C      -0.626476   -2.222743    0.010548
N       0.804338   -2.088343   -0.147133
C       1.207574   -0.759196   -0.034479
O       2.360639   -0.378345    0.011838
H       1.049706    1.876284   -0.059837
H      -0.550310    1.992509   -0.814787
H      -0.404226    1.963866    0.946627
H      -2.685555    0.460493   -0.125279
H      -3.067769   -1.172146   -0.241936
H      -0.908516   -2.729297    0.945335
H      -1.086124   -2.783437   -0.817352
H       1.442364   -2.818908    0.122099
