16

N      -0.153233   -3.809649   -0.488861
C      -0.108199   -2.658577   -0.336534
C      -0.054871   -1.306846   -0.156659
C      -0.008272   -0.109169    0.003158
C       0.066746    1.322830    0.197236
C      -0.491212    1.828007    1.567175
C       0.565947    2.868460    2.018131
O       1.398377    3.113178    0.890836
C       1.516028    1.886884    0.209111
H      -0.479404    1.815354   -0.614624
H      -1.480265    2.270041    1.436773
H      -0.581459    1.009928    2.283872
H       0.134465    3.823485    2.325645
H       1.162412    2.471354    2.852794
H       2.186575    1.188590    0.734590
H       1.911789    2.078280   -0.789928
