25

C      -0.066295    1.595317    0.092677
C      -0.038257    0.067303   -0.032016
C       0.728394   -0.461521   -1.259856
C       2.186299    0.020148   -1.267744
C       0.669003   -2.018333   -1.350076
C      -0.765723   -2.589710   -1.317814
C       1.354537   -2.506189   -2.550153
C       1.880741   -2.915003   -3.554216
C       2.527281   -3.414441   -4.760391
H       0.927261    2.014571    0.274156
H      -0.461545    2.058573   -0.818741
H      -0.708376    1.902632    0.924239
H       0.402706   -0.364952    0.877845
H      -1.072643   -0.288625   -0.068463
H       0.233747   -0.072636   -2.161892
H       2.730671   -0.400327   -2.116340
H       2.249803    1.109297   -1.334016
H       2.702912   -0.288567   -0.350052
H       1.204030   -2.411123   -0.471503
H      -1.377536   -2.143375   -2.108644
H      -0.743273   -3.669948   -1.482524
H      -1.251994   -2.405361   -0.357097
H       1.966055   -4.247350   -5.198761
H       2.606339   -2.632965   -5.524481
H       3.541041   -3.774138   -4.551093
