13

O      -0.101246    1.377410   -0.056583
C       0.029701    0.025132   -0.024478
C      -0.035359   -0.999204    1.086047
C      -1.105676   -0.990596    0.010156
C      -0.221763   -1.982092   -0.787371
C      -0.522037   -3.102560   -1.609804
N      -0.792982   -3.994935   -2.294989
C       0.906974   -0.997323   -0.822635
N       0.837164   -1.981352    0.301303
H       0.641005    1.777913    0.412334
H      -0.088494   -0.951140    2.165416
H      -2.171898   -0.831423    0.061932
H       1.755875   -0.935900   -1.493556
