18

C      -0.105663    1.530073    0.054998
C       0.130565    0.048414   -0.008358
O      -0.684453   -0.772332    0.870927
C       0.738829   -0.780013    1.048447
C       1.445665   -1.929590    0.374403
C       2.733686   -2.454370    0.912963
N       1.525691   -3.283682    0.955954
C       1.137309   -1.769711   -1.077683
C       0.435095   -0.656005   -1.302934
H       0.745966    2.077541   -0.362268
H      -0.995503    1.802800   -0.523208
H      -0.260671    1.851074    1.087724
H       1.098133   -0.386903    1.997508
H       3.503795   -2.799020    0.228370
H       3.109306   -2.011404    1.833329
H       1.118299   -3.279531    1.888195
H       1.431765   -2.511522   -1.810111
H       0.086021   -0.300625   -2.264934
