14

O      -0.085225    1.337123    0.138149
N       0.063428   -0.069900    0.133697
C      -1.089713   -0.639130   -0.020085
C      -2.384891    0.008566   -0.171706
C      -3.517362   -0.712533   -0.325405
N      -3.502014   -2.082251   -0.346017
C      -2.307955   -2.764850   -0.207564
C      -1.152207   -2.089956   -0.051704
F      -0.014571   -2.769462    0.079668
H       0.824157    1.627236    0.256808
H      -2.424791    1.086997   -0.159018
H      -4.492044   -0.254376   -0.439983
H      -4.355875   -2.597794   -0.461136
H      -2.341077   -3.844945   -0.229435
