13

O       0.093630    1.345177    0.086985
C       0.074231    0.004473    0.084680
N       0.076498   -0.663571   -1.052282
O       0.052631   -2.056746   -0.701796
C       0.038317   -2.079801    0.629299
C       0.049962   -0.842190    1.227478
C       0.031797   -1.071961    2.642399
C       0.010347   -2.432986    2.807347
N       0.014246   -3.066786    1.555214
H       0.107546    1.636900   -0.835297
H       0.034009   -0.342770    3.435972
H      -0.007720   -3.027849    3.705944
H       0.001919   -4.057692    1.391149
