20

C       0.276377    1.571152   -0.455386
C       0.091217    0.107222   -0.123110
C       1.282566   -0.814814    0.106134
C       0.370793   -0.433356    1.240064
C       0.806593    0.360493    2.460792
C       0.709702   -0.701652    3.567395
C      -0.363316   -1.637712    3.053013
N      -1.017383   -2.468893    3.741577
O      -0.523618   -1.443783    1.707270
H       1.132749    1.999703    0.074717
H       0.452300    1.707059   -1.527717
H      -0.609173    2.156740   -0.185324
H      -0.752087   -0.369784   -0.615670
H       1.215483   -1.829524   -0.269455
H       2.278116   -0.381163    0.085359
H       1.805368    0.786137    2.353104
H       0.105839    1.180844    2.652836
H       1.647077   -1.261386    3.661247
H       0.454594   -0.313900    4.553541
H      -1.668531   -2.988948    3.150647
