18

C      -0.033841    1.471480    0.016848
C       0.015716   -0.042767   -0.015164
O       0.672794   -0.475138    1.195304
C       0.827337   -1.778945    1.379187
C       1.402965   -2.457090    2.413190
C       1.257774   -3.816507    2.024855
C       1.699831   -5.040767    2.760404
N       0.651602   -3.946712    0.865206
O       0.371914   -2.622096    0.446019
H       0.974263    1.892490    0.060190
H      -0.526363    1.842989   -0.886330
H      -0.594142    1.823659    0.887156
H      -0.986956   -0.481494   -0.053681
H       0.578284   -0.412839   -0.878809
H       1.853075   -2.047210    3.300116
H       1.222854   -5.098737    3.744192
H       1.438131   -5.934427    2.190568
H       2.782877   -5.030342    2.920448
