20

C      -0.105531    1.671742    0.095551
C      -0.122005    0.146214    0.020902
N       0.665569   -0.436394    1.106719
C       2.144732   -0.528122    0.887309
C       2.254829   -1.756170    1.840299
C       3.079936   -2.548883    0.826752
O       2.922178   -3.945540    0.940059
C       2.095084   -1.776000   -0.072841
C       0.945472   -1.899697    1.003161
H       0.906621    2.064850   -0.049800
H      -0.744777    2.107175   -0.678654
H      -0.459443    2.009669    1.073605
H      -1.150952   -0.217072    0.138282
H       0.216896   -0.181405   -0.978426
H       2.805292    0.338339    0.838318
H       2.321162   -1.721703    2.926427
H       4.138598   -2.265650    0.737939
H       3.348152   -4.360240    0.183510
H       2.009936   -1.788656   -1.159382
H       0.173306   -2.663855    1.084931
