18

C      -0.032570    1.607877    0.004885
C       0.068892    0.091456   -0.029668
C      -1.291912   -0.568221    0.094656
O      -2.329981    0.033931    0.207402
C       0.857152   -0.624875   -1.127595
C       2.290468   -0.739735   -0.716711
C       2.464449   -0.120097    0.655842
C       1.055448   -0.685929    0.907418
N       1.289261   -1.744276   -0.217576
H       0.938129    2.081609   -0.154374
H      -0.717760    1.957094   -0.772459
H      -0.438448    1.948015    0.962218
H      -1.265193   -1.678926    0.077874
H       0.533493   -0.823366   -2.143768
H       3.057599   -1.025561   -1.427373
H       3.204203   -0.677821    1.235672
H       2.642546    0.953237    0.762417
H       0.738427   -1.011965    1.896590
