20

C       0.013911    1.597055    0.144744
C       0.069587    0.081021    0.042320
C       1.104811   -0.574900   -0.916098
C       1.333300   -1.681262    0.149126
C       2.760185   -2.196168    0.368119
C       2.863400   -3.128762    1.485113
C       2.916212   -3.894553    2.410464
C       0.703517   -0.734291    1.205540
H       1.004523    2.012631    0.362932
H      -0.337751    2.048218   -0.790115
H      -0.664267    1.917690    0.943698
H      -0.929741   -0.312191   -0.177326
H       0.769824   -0.879495   -1.911088
H       1.993694    0.057852   -1.026984
H       0.670118   -2.532218   -0.036267
H       3.119125   -2.682303   -0.549316
H       3.429253   -1.342311    0.541707
H       2.975954   -4.571570    3.225960
H       1.474762   -0.150443    1.721699
H       0.039967   -1.170193    1.955635
