20

C       0.071950    1.524515   -0.187262
C      -0.027211    0.031518    0.068615
N       1.260382   -0.711996    0.082650
C       0.482548   -0.615908    1.326621
C       1.097528    0.136052    2.483138
C       2.117671   -0.718554    3.229594
O       2.616385    0.053270    4.311070
C      -1.153268   -0.613919   -0.563379
C      -2.085105   -1.142278   -1.111694
H       0.988123    1.930657    0.242886
H       0.087246    1.718219   -1.263830
H      -0.787803    2.048940    0.240613
H       1.133695   -1.623813   -0.349207
H      -0.070478   -1.507495    1.620768
H       1.599018    1.042643    2.136133
H       0.312384    0.443141    3.184403
H       1.638446   -1.644890    3.588894
H       2.920587   -1.010226    2.535723
H       3.300165   -0.456765    4.754633
H      -2.910574   -1.610242   -1.588277
