16

O      -0.166342    1.467251   -0.073230
C      -0.055878    0.068893   -0.078833
C      -1.364974   -0.685393    0.027743
C      -2.039127   -0.804047   -1.340922
N      -1.684318    0.079721   -2.418340
C      -0.311816    0.195862   -2.531061
O       0.293993    0.948763   -3.259201
C       0.256114   -0.700650   -1.435458
C      -0.872738   -1.678370   -1.033434
H       0.682988    1.846999   -0.324925
H       0.645965   -0.290633    0.685150
H      -1.914672   -0.874905    0.941824
H      -3.038090   -1.221064   -1.364005
H      -2.258714    0.864957   -2.684372
H       1.276352   -1.035498   -1.599000
H      -0.853601   -2.759042   -1.039604
