15

O      -0.176697    0.254998    0.821311
C      -0.116512    1.319017    0.276048
O      -1.224368    2.065508   -0.032087
C      -0.859604    3.388201   -0.443759
C       0.677420    3.414279   -0.375456
C       1.442120    3.834585    0.910721
C       1.998758    2.381336    0.947959
N       1.034989    1.999341   -0.129739
H      -1.228955    3.551147   -1.460432
H      -1.334872    4.113093    0.225579
H       1.121251    3.810657   -1.292638
H       2.168722    4.641809    0.805429
H       0.776037    4.056526    1.749089
H       3.032306    2.287796    0.606828
H       1.864894    1.804677    1.865253
