17

C       0.028881    1.298483   -0.200282
O      -0.026426    0.010626    0.394829
C      -1.273145   -0.620618    0.228056
C      -1.567665   -1.399200   -1.118642
C      -0.529802   -2.489882   -0.603288
O       0.835784   -2.270768   -0.681675
C      -1.341264   -2.104716    0.706425
C      -2.548878   -2.170965   -0.237841
O      -3.658666   -2.605305   -0.267857
H       1.003218    1.723187    0.047950
H      -0.077366    1.244818   -1.291823
H      -0.760316    1.948742    0.201378
H      -2.072089    0.045317    0.578296
H      -1.701178   -1.003628   -2.122466
H      -0.711175   -3.500288   -0.974668
H       1.007343   -1.402542   -0.289327
H      -1.223224   -2.483664    1.718376
