15

C      -0.125246    1.460007    0.159688
N      -0.141860    0.147736   -0.491931
C      -1.180080   -0.704268   -0.208854
C      -1.243431   -2.015554    0.048181
N      -0.250923   -2.967134    0.188706
O      -2.624378   -2.361674    0.112467
C      -3.337063   -1.229490   -0.061541
O      -4.521344   -1.115650   -0.039194
O      -2.456644   -0.187836   -0.273923
H       0.695639    2.045172   -0.259699
H      -1.060987    1.977952   -0.056890
H      -0.002074    1.403317    1.250954
H       0.738968   -0.346687   -0.430239
H      -0.269356   -3.439194    1.087369
H      -0.254245   -3.669539   -0.545005
