14

C       0.214147    1.535025    0.026207
O       1.172844    0.506343   -0.209027
C      -0.189247    0.116500    0.013527
C      -0.467086   -0.641164    1.247472
C      -1.519589   -1.501162    1.495486
N      -1.357542   -1.947707    2.764352
N      -0.262027   -1.449122    3.367217
C       0.280856   -0.655422    2.450871
H       0.302127    2.049387    0.982049
H      -0.013504    2.170421   -0.829384
H      -0.698422   -0.244351   -0.880779
H      -2.347906   -1.816482    0.880578
H      -1.940291   -2.593648    3.268958
H       1.200095   -0.130793    2.662940
