21

C       0.094253    1.520544   -0.043350
C       0.070934   -0.005596   -0.004577
O       0.740186   -0.465269   -1.171311
C       0.968930   -1.876008   -1.162705
C       1.397272   -2.284155   -2.562240
C       2.012673   -2.188179   -0.077771
O       3.320344   -1.755183   -0.451821
C       1.587844   -1.549068    1.223143
C       0.698078   -0.558887    1.250099
H       1.123162    1.887607    0.014534
H      -0.350540    1.877063   -0.975929
H      -0.471920    1.935310    0.795860
H      -0.984409   -0.339519   -0.045352
H       0.031513   -2.393279   -0.895453
H       2.341932   -1.804660   -2.826557
H       1.539104   -3.367951   -2.614957
H       0.633730   -1.994439   -3.288560
H       2.096069   -3.274781    0.041969
H       3.254047   -0.799700   -0.571092
H       2.062820   -1.903233    2.133575
H       0.389420   -0.103071    2.188095
