15

C      -0.070134    1.575404    0.021615
C       0.033547    0.070895    0.086359
C       1.327431   -0.672820   -0.191611
O       2.512326    0.094040   -0.149278
C       2.872459    0.146314    1.219788
O       1.667223    0.128819    1.963768
C       0.771350   -0.650684    1.199720
H       0.843477    2.049249    0.382475
H      -0.241133    1.907689   -1.007278
H      -0.902651    1.932494    0.636259
H      -0.848080   -0.467376   -0.257863
H       1.370293   -1.547782   -0.831584
H       3.500572   -0.721756    1.485259
H       3.403656    1.081609    1.416911
H       0.352423   -1.507149    1.717336
