21

C      -0.615043    1.473743    0.299177
C      -0.225250    0.005876    0.239435
O      -1.375987   -0.744811   -0.088764
C      -1.148737   -2.131464   -0.258576
C      -1.041233   -2.902322    1.091253
C      -2.424370   -3.472804    1.328656
O      -3.471463   -2.503055    1.208395
C      -3.215777   -3.369460    0.096686
C      -2.376505   -2.729703   -0.989388
H       0.253721    2.090064    0.549475
H      -1.011641    1.804092   -0.665023
H      -1.386158    1.632978    1.057977
H       0.560872   -0.157224   -0.518614
H       0.194828   -0.313810    1.207129
H      -0.233234   -2.269175   -0.853360
H      -0.315601   -3.721689    1.019059
H      -0.715359   -2.243789    1.901305
H      -2.586607   -4.247138    2.075214
H      -4.017189   -4.060955   -0.152895
H      -2.904899   -1.942159   -1.532397
H      -2.068603   -3.495258   -1.711073
