16

C      -0.095027    1.466575    0.110177
C       0.055552   -0.032699    0.239241
O       1.077444   -0.554960    0.621279
C      -1.175772   -0.863477   -0.119720
C      -0.847781   -2.356394   -0.266820
C      -1.906360   -3.275118    0.366233
O      -2.735670   -2.887027    1.141307
C      -0.592430   -2.764354   -1.646020
N      -0.422238   -3.100001   -2.738758
H       0.772128    1.968214    0.540143
H      -0.180525    1.733478   -0.949881
H      -1.012763    1.810031    0.599289
H      -1.900817   -0.758032    0.698169
H      -1.661222   -0.461853   -1.013565
H       0.081440   -2.534601    0.302182
H      -1.822641   -4.341063    0.074191
