22

C       2.715217    1.787025   -0.108892
C       2.166950    0.386801    0.194768
C       1.907187   -0.415600   -1.066744
C       2.960438   -1.267926   -1.750877
C       4.375729   -1.422018   -1.232285
C       1.764947   -1.924269   -1.091441
C       1.888306   -2.766672    0.171887
C       2.263809   -4.151358   -0.123733
N       2.557871   -5.241131   -0.371662
H       3.675006    1.730606   -0.632124
H       2.024432    2.350184   -0.745819
H       2.864663    2.361307    0.810504
H       2.865479   -0.133676    0.858140
H       1.229368    0.479302    0.758885
H       1.230835    0.099500   -1.746410
H       2.914280   -1.261066   -2.836901
H       4.442589   -1.376799   -0.142322
H       4.801247   -2.381032   -1.546089
H       5.018493   -0.628221   -1.627416
H       1.011618   -2.316189   -1.768793
H       2.627883   -2.356583    0.864460
H       0.934311   -2.779890    0.712875
