17

C       0.025591    1.525507    0.026402
C      -0.048940    0.025403    0.003692
C      -1.188804   -0.698370   -0.172061
C      -1.148242   -2.144474   -0.176627
O      -2.119935   -2.879851   -0.328340
C       0.215848   -2.701763    0.021574
C       0.363665   -4.190980    0.033409
N       1.282371   -1.976522    0.186291
N       1.128407   -0.636948    0.175175
H       0.681175    1.900989   -0.767482
H      -0.966266    1.954879   -0.118400
H       0.419920    1.887345    0.982624
H      -2.141653   -0.202270   -0.310733
H      -0.006769   -4.612075   -0.906884
H       1.406298   -4.473973    0.184254
H      -0.259740   -4.623848    0.822603
H       1.989462   -0.130429    0.304680
