14

O      -0.056353    0.437646   -0.786013
C       0.087544    1.266049    0.086483
N       1.275178    1.595315    0.664421
C       2.532684    1.012535    0.237389
C       3.559183    2.078271    0.004045
N       4.388897    2.065765   -1.002810
O       5.166423    3.215841   -0.796419
C       4.698299    3.784826    0.311545
N       3.714992    3.149094    0.864103
H      -0.750044    1.848369    0.516939
H       1.307138    2.326866    1.357433
H       2.914748    0.311967    0.992568
H       2.348061    0.449248   -0.678314
H       5.171517    4.700360    0.635072
