19

O      -0.019805    0.053142    0.735478
C      -0.010268    1.151080    0.221048
N       1.090297    1.782598   -0.273298
C       2.419210    1.204034   -0.250329
C       3.178798    1.246125   -1.627777
N       4.426440    1.992174   -1.302442
C       4.767225    1.342277    0.031015
C       3.467765    1.998242    0.556930
C       3.853279    3.109479   -0.452146
H      -0.923600    1.766277    0.094557
H       0.960884    2.695566   -0.680650
H       2.290306    0.192133    0.134548
H       3.425557    0.252689   -2.008861
H       2.609797    1.779293   -2.394902
H       4.841257    0.250956    0.008410
H       5.682865    1.776107    0.438172
H       3.254902    2.173996    1.612232
H       4.654675    3.764179   -0.103446
H       3.074143    3.708747   -0.935533
