21

C      -0.471601    1.372254    0.181573
C       0.073956   -0.046360    0.041481
C       1.159390   -0.242066   -1.032337
C       1.747712   -1.636428   -0.728353
C       1.523567   -1.858485    0.796814
C       0.748387   -0.625027    1.298419
O       1.691194    0.342329    1.813334
C       1.575653    0.744954    3.089081
O       2.316518    1.536839    3.591136
H       0.327926    2.078016    0.422971
H      -0.940050    1.698906   -0.751991
H      -1.229502    1.436232    0.970390
H      -0.758831   -0.727457   -0.188112
H       0.765723   -0.157766   -2.049017
H       1.925141    0.532273   -0.910810
H       1.219105   -2.404614   -1.301396
H       2.802412   -1.707661   -1.003859
H       0.939469   -2.764488    0.982818
H       2.458555   -1.957883    1.352385
H       0.031182   -0.864373    2.092143
H       0.727365    0.264063    3.615694
