21

C      -0.248259    1.512117    0.037751
C       0.031970    0.023464    0.056241
C       1.317026   -0.632129   -0.353482
C       2.583097    0.226562   -0.435455
C       2.805769    0.814805    0.974980
C       1.821902    0.092637    1.907057
O       1.864878    0.119361    3.113927
C       0.861299   -0.731685    1.100262
C       0.296086   -1.962561    1.767438
H       0.633464    2.123904    0.236363
H      -0.634910    1.809036   -0.943586
H      -1.005957    1.773766    0.783833
H      -0.847454   -0.558475   -0.214419
H       1.260307   -1.505299   -0.995495
H       3.427661   -0.408549   -0.718228
H       2.501449    1.001976   -1.204275
H       3.819183    0.647864    1.350228
H       2.635326    1.894747    1.034874
H      -0.250637   -1.686154    2.674094
H      -0.387564   -2.496216    1.100575
H       1.091370   -2.654301    2.064901
