16

O      -0.100346   -0.050062    0.121305
C       0.012994    1.119646   -0.148769
C       1.304303    1.869028   -0.152984
C       1.407706    3.085256    0.870604
N       2.019484    3.977282   -0.140951
C       3.047165    3.169694   -0.960062
C       3.600616    1.901152   -0.421347
C       2.597911    1.114201   -0.012540
C       1.599444    3.002940   -1.192870
H      -0.880169    1.741493   -0.390971
H       0.423012    3.492574    1.113569
H       1.983464    2.899177    1.781878
H       3.633497    3.837932   -1.578155
H       4.660442    1.697898   -0.341843
H       2.661281    0.160688    0.493935
H       1.030701    3.273712   -2.077387
