16

C      -0.082995    1.559405    0.011708
C       0.068868    0.056930    0.064258
C       1.365305   -0.664971   -0.196618
O       2.564693    0.087802   -0.051749
C       2.605209    0.442631    1.267338
N       3.641710    1.277078    1.589281
N       1.674326    0.030152    2.042259
C       0.759075   -0.696024    1.197397
H       0.755967    2.074388    0.483365
H      -0.151003    1.908068   -1.024250
H      -0.993981    1.869221    0.533819
H      -0.779799   -0.493872   -0.336770
H       1.472094   -1.480114   -0.901080
H       4.471991    1.161051    1.027581
H       3.811767    1.341412    2.581304
H       0.277758   -1.560914    1.639294
