15

C      -0.110329    1.397615    0.320015
O       0.026730    0.019647    0.045341
C       0.590883   -0.688929    1.098706
C       0.696044   -2.162552    0.735013
O       0.318867   -2.640202   -0.305834
C       1.303496   -2.985168    1.774766
C       1.795679   -3.685066    2.630287
C       2.412777   -4.524537    3.631774
O       1.842299   -4.926562    4.617006
H       0.863654    1.872636    0.513740
H      -0.560248    1.855589   -0.562889
H      -0.762367    1.576410    1.188656
H       1.604870   -0.329004    1.357456
H      -0.004108   -0.613302    2.028490
H       3.471473   -4.773614    3.420431
