20

C       0.069502    1.532255   -0.002112
C       1.332652    0.751693    0.081222
C       1.942411    0.255945    1.440922
C       1.474594   -1.219396    1.292560
C       0.067637   -0.508579    1.377805
C      -0.892015   -1.047073    2.436926
C       0.140260   -0.479498    3.489734
C       0.741343    0.469478    2.382956
N      -0.010493    0.059676    0.012366
H      -0.296004    2.104393    0.842774
H      -0.194071    1.959958   -0.965820
H       1.968107    0.661366   -0.795528
H       2.974744    0.552596    1.636104
H       1.681826   -1.719084    0.344479
H       1.723970   -1.869517    2.130122
H      -1.835989   -0.495190    2.475003
H      -1.102903   -2.119854    2.441907
H      -0.305778    0.073556    4.317843
H       0.808748   -1.234261    3.904498
H       0.381610    1.487885    2.523350
