12

O       0.065535    1.306702    0.095994
C       0.059894   -0.025020    0.042499
N       0.094719   -0.601402   -1.164221
C       0.086530   -1.922247   -1.145583
C       0.044092   -2.629129    0.067327
N       0.010913   -1.960653    1.235893
N       0.018688   -0.643034    1.229212
C       0.034974   -4.050777    0.099125
C       0.028548   -5.253625    0.085096
H       0.096185    1.624348   -0.817327
H       0.113710   -2.444782   -2.097878
H       0.022322   -6.315857    0.089966
