14

C      -0.057014    1.434466    0.009317
O      -0.012256    0.005374    0.005218
C      -1.186140   -0.622565    0.012426
C      -1.344591   -2.004537    0.010053
N      -2.727664   -2.181581    0.020006
C      -3.291749   -0.958317    0.027370
N      -2.388733    0.008585    0.023079
C      -0.424462   -3.063142    0.000422
N       0.322724   -3.950975   -0.007466
H       0.984015    1.757736    0.001993
H      -0.578325    1.811227   -0.875257
H      -0.564326    1.806546    0.903965
H      -3.199982   -3.070700    0.021280
H      -4.361335   -0.813260    0.035777
