21

C       0.944786   -0.508151    1.200956
C       0.076720    0.054158    0.065828
C       0.644126   -0.341960   -1.317276
C      -0.030211    0.349064   -2.510733
C       0.320619    1.842080   -2.652039
C       0.275901   -0.364528   -3.815761
O       0.904815   -1.385928   -3.923048
C      -1.337469   -0.480217    0.175943
O      -2.341205    0.175344    0.055796
H       0.986760   -1.602544    1.160614
H       1.969645   -0.134223    1.120482
H       0.556538   -0.221289    2.183117
H       0.015425    1.144359    0.146490
H       1.717631   -0.118398   -1.330496
H       0.569994   -1.427947   -1.448112
H      -1.125329    0.285302   -2.404806
H       1.403808    1.984934   -2.730596
H      -0.142488    2.272896   -3.545811
H      -0.037627    2.412031   -1.791610
H      -0.144433    0.143474   -4.715271
H      -1.391547   -1.581813    0.354173
