11

N      -0.101794    1.316222    0.145407
C       0.022607    0.058679   -0.006662
N      -1.101150   -0.750763   -0.072427
C      -1.102964   -2.113908   -0.233621
O      -2.082241   -2.796527   -0.288210
O       0.143298   -2.706796   -0.336977
N       1.336602   -1.985496   -0.283488
C       1.260325   -0.719417   -0.131706
H       0.807678    1.773562    0.175250
H      -2.008173   -0.309707    0.003944
H       2.214106   -0.201791   -0.095911
