16

O      -0.069536    0.008817    0.268245
C      -0.084167    1.182884    0.053879
C      -1.188422    2.288239   -0.082529
C      -1.711232    2.543653    1.314601
C      -0.893209    3.322652    2.031375
C       0.319830    3.758808    1.252929
C       1.494065    2.703461    1.260984
N       0.985900    2.129839   -0.035433
C       0.012789    3.259500   -0.188761
H      -1.936215    2.203304   -0.872249
H      -2.601705    2.054881    1.691396
H      -1.034622    3.567411    3.078278
H       0.620286    4.796252    1.413515
H       2.486325    3.143622    1.127888
H       1.517966    1.986173    2.084638
H       0.127705    3.915334   -1.050802
