20

C      -0.116910    1.426463   -0.131760
C      -0.006696   -0.062458    0.089176
N       1.355767   -0.642410    0.006125
C       0.643379   -0.657503    1.277639
C       1.260263   -0.077576    2.569672
C       0.935077   -1.407554    3.274127
C      -0.554811   -1.674877    3.207637
C       0.294136   -1.946576    1.998385
O       0.420557   -3.191053    1.403964
H       0.722587    1.947030    0.336628
H      -0.105905    1.665792   -1.200737
H      -1.048134    1.817688    0.292885
H      -0.813831   -0.650957   -0.349825
H       1.321358   -1.577964   -0.396854
H       2.329977    0.104189    2.447182
H       0.783843    0.812501    2.993382
H       1.567413   -1.916136    3.990176
H      -0.871857   -2.568097    3.738651
H      -1.272479   -0.857078    3.224759
H      -0.460133   -3.527967    1.209010
