19

C       0.025422    1.335040   -0.485428
C      -0.004583    0.031587    0.323828
O       0.348305    0.292010    1.663210
C      -1.355524   -0.634877    0.294037
N      -2.049686   -0.893621    1.377378
C      -3.208573   -1.503584    0.945257
C      -3.218776   -1.618417   -0.419115
C      -4.209410   -2.187611   -1.376136
N      -2.017902   -1.054089   -0.821840
H       1.013286    1.794326   -0.395222
H      -0.171900    1.155034   -1.548612
H      -0.721631    2.035091   -0.101277
H       0.736239   -0.660262   -0.114971
H      -0.383597   -0.047951    2.202298
H      -3.969808   -1.826301    1.639430
H      -4.575744   -1.437770   -2.088074
H      -3.792481   -3.018063   -1.959073
H      -5.072704   -2.570629   -0.827269
H      -1.696266   -0.971586   -1.771996
