14

N      -0.044280   -1.171856   -0.006137
C      -0.013275   -0.017523    0.001080
C       0.013717    1.455752    0.010432
N       1.346916    2.010219    0.000513
C       2.115571    2.255200    1.117372
C       3.346964    2.691599    0.696564
C       3.331653    2.702896   -0.727499
C       2.091427    2.273008   -1.128592
H      -0.537674    1.820739   -0.861842
H      -0.520010    1.809242    0.898307
H       1.712801    2.096493    2.105208
H       4.164739    2.982792    1.337332
H       4.135498    3.004376   -1.381011
H       1.667471    2.129913   -2.109928
