19

C      -0.069514    1.490067   -0.161908
C       1.373536    1.963148    0.181104
C       2.248402    0.734347   -0.138034
C       3.412043    0.325709    0.749194
O       3.013773   -0.103508    2.057696
C       3.275769   -1.109217    1.071245
C       2.012466   -1.678502    0.423426
C       1.276611   -0.422331    0.047545
C       0.012736   -0.012080    0.041810
H      -0.826399    1.959122    0.476444
H      -0.339531    1.744302   -1.197432
H       1.669593    2.866097   -0.359640
H       1.435079    2.172252    1.254021
H       2.619739    0.776092   -1.175112
H       4.377994    0.822157    0.695336
H       4.127680   -1.752010    1.279055
H       2.301365   -2.278405   -0.451348
H       1.444812   -2.327693    1.096856
H      -0.861636   -0.636274    0.189734
