15

O      -0.014773    0.060920    0.060442
C       0.053543    1.250032    0.022119
O      -1.038257    2.095075    0.052170
C      -0.409747    3.403229   -0.020416
C       0.647009    3.213027   -1.127665
C       1.224065    2.219204   -0.061269
C       0.735337    3.260113    1.036125
C       1.587840    4.408241    1.247466
C       2.292804    5.363166    1.440149
H      -1.166396    4.182665    0.006042
H       0.302338    2.802248   -2.078009
H       1.284802    4.084251   -1.272411
H       2.224246    1.798043   -0.082351
H       0.414133    2.825919    1.987503
H       2.915489    6.205779    1.614126
