19

C       0.565709    0.457331   -0.805141
C      -0.150789    0.151668    0.494183
O       0.125908    0.717682    1.529108
C      -1.228901   -0.923911    0.486548
C      -2.153107   -1.198568   -0.757742
C      -1.661661   -2.659281   -0.759205
C      -2.383137   -3.883761   -1.215619
O      -0.236900   -2.599281   -0.951178
C      -0.751172   -2.393318    0.369684
H       0.832973   -0.467439   -1.323559
H      -0.103926    1.014039   -1.472182
H       1.445600    1.068747   -0.600632
H      -1.817366   -0.796457    1.397721
H      -3.210565   -1.087167   -0.507925
H      -1.937706   -0.646639   -1.675041
H      -2.511415   -3.874599   -2.303982
H      -1.820455   -4.781325   -0.946491
H      -3.377162   -3.939982   -0.760806
H      -0.364975   -3.031346    1.156730
