16

N       0.099702    1.178366    0.420486
C       0.061893    0.002714   -0.265057
O       0.923738   -0.360013   -1.041773
C      -1.198715   -0.831451   -0.053776
C      -0.975708   -2.322417    0.192689
O      -0.406729   -2.453401    1.507679
C      -1.832383   -2.318760    1.389088
C      -2.063830   -0.804259    1.283644
O      -1.598480   -0.047870    2.376980
H       0.946720    1.721294    0.356020
H      -0.512404    1.309356    1.213658
H      -1.854506   -0.667277   -0.915173
H      -0.763892   -3.110705   -0.517102
H      -2.446831   -3.088842    1.839663
H      -3.099076   -0.509827    1.103213
H      -0.782578   -0.482686    2.664338
