19

C      -0.046752    1.500001    0.000877
C      -0.020224    0.044774    0.026462
C       0.000736   -1.158864    0.068218
C       0.041151   -2.617489    0.057240
C      -1.378507   -3.232448   -0.053056
C      -1.388938   -4.744920    0.140802
O      -2.735776   -5.172251    0.018212
C       0.890381   -3.077762   -1.131766
O       1.781391   -3.880900   -1.062100
H       0.851636    1.904976   -0.477550
H      -0.915569    1.872928   -0.552254
H      -0.096519    1.911774    1.014770
H       0.532341   -2.995702    0.962147
H      -2.021439   -2.768728    0.700576
H      -1.812158   -2.988327   -1.029632
H      -0.743625   -5.231711   -0.606345
H      -0.976746   -4.992302    1.132752
H      -2.757242   -6.129045    0.111438
H       0.596369   -2.605917   -2.096217
