19

C      -0.250150    1.715318    0.120311
C       0.061955    0.225450    0.050471
C      -1.221183   -0.601901   -0.195362
C      -1.860708   -0.301803   -1.476055
N      -2.346996   -0.053917   -2.494995
C       1.222974   -0.214052   -0.898783
C       1.774622   -1.132221    0.224689
C       0.870485   -0.384208    1.241141
H       0.662480    2.291946    0.299261
H      -0.698046    2.073742   -0.812723
H      -0.950232    1.936225    0.935078
H      -0.993287   -1.673738   -0.172552
H      -1.944304   -0.415751    0.608009
H       0.937816   -0.679983   -1.845468
H       1.893745    0.621045   -1.117647
H       1.486290   -2.178677    0.094360
H       2.850643   -1.100110    0.406088
H       1.414322    0.390877    1.787935
H       0.312370   -0.985756    1.964885
