19

C      -0.021606    1.369758    0.005671
O      -0.004134   -0.035885    0.012744
C      -1.296412   -0.602743    0.017513
C      -1.169079   -2.124938    0.055431
C      -0.454332   -2.604070    1.323594
C      -2.547012   -2.769578   -0.096117
O      -2.370125   -4.174568   -0.201987
H       1.016514    1.711276    0.001871
H      -0.529756    1.768989   -0.887056
H      -0.526730    1.778446    0.895779
H      -1.865937   -0.244200    0.894699
H      -1.853230   -0.283403   -0.881259
H      -0.575145   -2.423741   -0.818121
H      -1.020277   -2.316941    2.219124
H      -0.358365   -3.691698    1.319965
H       0.539126   -2.156606    1.395679
H      -3.173356   -2.513998    0.775427
H      -3.050234   -2.368571   -0.991202
H      -3.238487   -4.585646   -0.232132
