16

C      -0.273071    1.573177   -0.037380
C       0.067214    0.079308   -0.023184
C       0.799740   -0.454041   -1.237296
C       1.852523   -1.215369   -0.929822
C       1.996513   -1.402857    0.558311
O       3.305334   -1.255634    1.054762
C       1.055049   -0.305691    1.084917
O       1.197518    0.226562    2.156268
H       0.619453    2.173344   -0.237502
H      -1.015787    1.795510   -0.809022
H      -0.675196    1.878767    0.931747
H      -0.860593   -0.490546    0.146318
H       0.474559   -0.219989   -2.245286
H       2.519220   -1.694926   -1.636069
H       1.582765   -2.385611    0.857383
H       3.215699   -0.787320    1.897004
