23

C       0.030529    1.533516    0.090762
C      -0.037706    0.005733    0.004170
C      -1.467061   -0.568452    0.000248
C      -2.281218   -0.133278   -1.225957
C      -1.395294   -2.089780    0.099172
O      -2.733421   -2.599808    0.259662
C      -2.851733   -3.942844    0.314408
C      -4.298384   -4.343891    0.482263
O      -1.917466   -4.700064    0.238176
H       1.069078    1.873112    0.150443
H      -0.421528    2.013630   -0.782130
H      -0.491159    1.902258    0.981093
H       0.487757   -0.333448   -0.899261
H       0.511558   -0.422121    0.852816
H      -1.981138   -0.209686    0.903368
H      -3.265904   -0.606845   -1.222245
H      -2.429311    0.949549   -1.249027
H      -1.770627   -0.421624   -2.153130
H      -0.950661   -2.531898   -0.799755
H      -0.792069   -2.409302    0.955352
H      -4.891051   -3.971021   -0.357991
H      -4.370020   -5.429500    0.534589
H      -4.709096   -3.897531    1.392291
