23

O      -0.145415    1.510195   -0.129518
C       0.008685    0.105409    0.040532
C      -1.361388   -0.536308   -0.112950
C      -2.017595   -0.359523   -1.496654
C      -3.183673   -1.366464   -1.470199
C      -2.642402   -2.582740   -0.696228
C      -1.692887   -3.529479   -1.486642
C      -0.469252   -2.965901   -0.712905
C      -1.415122   -2.055556    0.133520
H       0.724366    1.916096   -0.073427
H       0.706636   -0.303661   -0.706623
H       0.420191   -0.128918    1.036232
H      -2.017098   -0.060015    0.629880
H      -2.334287    0.668748   -1.682285
H      -1.300433   -0.621105   -2.286392
H      -4.030197   -0.929939   -0.926454
H      -3.546715   -1.631960   -2.468812
H      -3.426640   -3.098943   -0.138221
H      -1.879591   -4.592013   -1.311753
H      -1.678824   -3.364772   -2.568601
H       0.083273   -3.705306   -0.128061
H       0.251599   -2.430196   -1.336146
H      -1.410837   -2.298884    1.198727
