20

C       0.686574    1.520503    0.599533
C       0.154106    0.134186    0.210193
C       0.657691   -0.316870   -1.131761
C       0.037627    0.210684   -2.498773
O       0.959200   -0.024485   -3.568507
C       0.163036   -1.114253   -3.090813
C       0.801201   -1.680974   -1.762890
N       1.936679   -0.940293   -1.293646
C       3.111095   -0.488779   -2.044458
H       1.779138    1.511350    0.662233
H       0.400736    2.279500   -0.136882
H       0.293723    1.834601    1.571174
H       0.455928   -0.606289    0.958284
H      -0.943905    0.148069    0.197489
H      -0.711423    0.983044   -2.628772
H      -0.462219   -1.641488   -3.800965
H       0.581911   -2.666611   -1.363639
H       3.052148    0.574577   -2.287583
H       4.002027   -0.658772   -1.427702
H       3.225185   -1.040104   -2.980157
