15

N      -0.738265   -0.822538   -0.907920
C      -0.364727    0.173139   -0.455579
C       0.108112    1.424535    0.125933
C      -0.454096    1.705236    1.554391
C       0.676613    2.441284    2.217001
C       1.819800    2.337968    1.526864
C       1.658201    1.502189    0.269408
C       3.073204    2.886067    1.911967
N       4.107650    3.323438    2.194999
H      -0.213203    2.239915   -0.530430
H      -1.385078    2.278443    1.522320
H      -0.676167    0.773441    2.090464
H       0.571313    2.957482    3.163191
H       2.103308    0.510093    0.405259
H       2.130222    1.949914   -0.608311
