15

O       0.008419    1.385741    0.204107
C      -0.016270   -0.022137    0.207998
C      -1.387502   -0.579533   -0.148670
C      -1.508809   -2.122496   -0.055972
N      -2.454266   -2.375059    1.043639
C      -2.822420   -1.229699    1.446324
O      -2.340345   -0.107398    0.858998
C      -3.753819   -1.008351    2.517903
N      -4.499718   -0.820458    3.379303
H      -0.644393    1.684725    0.847248
H       0.707015   -0.356559   -0.544270
H       0.296100   -0.441163    1.179010
H      -1.721639   -0.169180   -1.104682
H      -1.890734   -2.577166   -0.974696
H      -0.549740   -2.601606    0.172375
