25

C      -0.008710    1.600693    0.066978
C       0.007762    0.063465    0.034042
C       0.835344   -0.458801    1.219170
C      -1.422273   -0.536366   -0.024229
C      -2.179548   -0.058512   -1.276892
C      -1.429584   -2.069105    0.008083
C      -1.233238   -2.847719    1.332842
O      -2.417069   -3.633497    1.100004
C      -2.795721   -2.797759   -0.010101
H       1.010805    1.992838    0.141061
H      -0.461363    2.036082   -0.826990
H      -0.565847    1.967168    0.937918
H       0.520916   -0.245498   -0.889506
H       0.351321   -0.225944    2.174933
H       0.993949   -1.539109    1.174572
H       1.823292    0.013141    1.230434
H      -1.971974   -0.182202    0.862190
H      -1.632538   -0.327730   -2.188625
H      -3.171867   -0.515085   -1.339947
H      -2.323768    1.024065   -1.281887
H      -0.771648   -2.456118   -0.778112
H      -0.338375   -3.474175    1.423237
H      -1.327253   -2.231183    2.237858
H      -3.650701   -2.153452    0.243518
H      -3.046486   -3.382336   -0.902557
