13

O       0.109003    1.417650   -0.054190
C       0.111158    0.017484    0.041382
C      -1.340497   -0.508093    0.053951
O      -2.040052   -0.014088   -1.088465
C      -1.392251   -1.963177    0.149296
C      -1.393142   -3.170925    0.193475
C      -1.404640   -4.535299    0.248565
N      -1.412181   -5.695907    0.292988
H      -0.506195    1.638834   -0.765423
H       0.651221   -0.460878   -0.793338
H       0.618728   -0.256338    0.971044
H      -1.854201   -0.064682    0.914813
H      -1.761771   -0.528037   -1.856451
