15

C      -0.106407    1.515252    0.015111
C       0.136758    0.043294    0.022256
O      -0.735339   -0.802306    0.768932
C       0.674443   -0.912100    1.008656
C       1.232588   -1.842598   -0.072346
C       0.691283   -0.822971   -1.148332
C      -0.272475   -1.295341   -2.128816
N      -1.040284   -1.665007   -2.909997
H       0.771889    2.055817   -0.351147
H      -0.952781    1.760550   -0.635612
H      -0.339628    1.862204    1.024823
H       1.019008   -0.760236    2.024705
H       2.321533   -1.912731   -0.091057
H       0.790661   -2.839648   -0.094824
H       1.516830   -0.321621   -1.660565
