18

C       0.261134    1.380845   -0.145266
O      -0.053986   -0.003331   -0.010169
C       0.455377   -0.556443    1.128818
C       1.898755   -1.074545    1.245690
C       0.727540   -2.008275    1.422517
N       0.129474   -1.839461    2.751968
C       0.563411   -2.451403    3.991207
C      -0.118683   -0.476450    2.552604
O      -0.565330    0.369956    3.277986
H       1.347003    1.534397   -0.207613
H      -0.206347    1.717893   -1.072132
H      -0.134865    1.959216    0.697220
H       2.410296   -1.130916    0.288237
H       2.529749   -0.819014    2.091999
H       0.509393   -2.872548    0.809533
H       1.657937   -2.455699    4.090802
H       0.137244   -1.873145    4.814665
H       0.203022   -3.481983    4.063704
