17

N      -0.268984    1.326349    0.378259
C      -0.005193   -0.074175   -0.018736
C       0.773479   -0.807564    1.055425
C      -0.010611   -1.595101    1.787952
C      -1.444441   -1.567837    1.338985
C      -1.383409   -0.857829   -0.041601
O      -2.467677   -0.024414   -0.331673
C       0.677762   -0.136080   -1.321645
N       1.212251   -0.160739   -2.347156
H       0.504169    1.688906    0.926105
H      -0.359535    1.916359   -0.443656
H       1.837520   -0.650706    1.188527
H       0.332610   -2.186935    2.629559
H      -1.891416   -2.564463    1.263994
H      -2.071800   -0.995785    2.034436
H      -1.342856   -1.609412   -0.834267
H      -2.340299    0.763311    0.218524
