19

O      -0.576077    0.391570    0.405039
C       0.213165    0.824302   -0.394155
C       1.287617    1.849318   -0.085497
C       1.248496    3.020224   -1.045784
C       1.926019    2.930390   -2.410936
C       2.442146    3.880868   -1.359400
O       2.081616    5.231805   -1.425090
C       0.662061    5.299200   -1.574559
C       0.088193    4.008447   -0.949911
H       0.198474    0.487365   -1.456881
H       1.168312    2.172506    0.954018
H       2.257368    1.338726   -0.172990
H       2.523375    2.045938   -2.607873
H       1.422118    3.327098   -3.285696
H       3.419681    3.739954   -0.912711
H       0.316250    6.212608   -1.083987
H       0.398334    5.368055   -2.638854
H      -0.820622    3.680432   -1.463916
H      -0.162883    4.158799    0.105929
