21

C      -0.231092    1.515926    0.186033
C       0.140075    0.035858    0.032261
C       0.780803   -0.289430   -1.283147
O       1.548089   -1.501302   -1.362984
C       2.184233   -0.274347   -1.753387
C       1.755545    0.041830   -3.204259
C       1.473169   -1.174219   -4.136185
C      -0.010717   -1.204465   -3.648544
C       0.268232    0.015663   -2.721696
H       0.651739    2.156400    0.090997
H      -0.955114    1.829940   -0.572395
H      -0.678568    1.701705    1.166659
H       0.832277   -0.268759    0.825157
H      -0.758451   -0.585187    0.150444
H       3.112348   -0.031338   -1.245127
H       2.198841    0.941775   -3.631162
H       1.580453   -0.934450   -5.196739
H       2.055326   -2.070209   -3.914316
H      -0.735945   -0.987642   -4.436441
H      -0.310385   -2.117336   -3.130910
H      -0.368180    0.896053   -2.812004
