16

C      -0.188719    1.498528   -0.098885
C       1.362990    1.812933    0.117725
C       2.151978    1.943605    1.414926
C       2.732037    0.757545    1.736299
C       2.213140   -0.311751    0.868624
C       1.398037   -1.431606    1.094597
C       0.148331   -1.211770    0.423929
C       0.252227    0.007527   -0.239950
N       1.567123    0.389179   -0.124317
H      -0.797373    1.657788    0.790217
H      -0.649145    1.991898   -0.958690
H       1.772052    2.471557   -0.659144
H       2.362628    2.890541    1.897362
H       3.392808    0.602479    2.579887
H       1.614064   -2.262382    1.750763
H      -0.721382   -1.847267    0.509160
