16

C      -0.577137    1.216818   -0.009468
C       0.298465   -0.015035    0.012389
O       1.187690   -0.026621   -1.114201
C       2.462657   -0.341915   -0.665892
C       2.418967   -0.346809    0.814872
O       1.119737   -0.034223    1.189323
C       2.681518   -1.677375    0.077184
C       1.721009   -2.735966    0.045332
N       0.939952   -3.589701    0.019471
H       0.040434    2.117989    0.012818
H      -1.187074    1.219401   -0.916462
H      -1.241267    1.212626    0.858618
H      -0.295495   -0.936334   -0.008151
H       3.254607    0.059375   -1.285397
H       3.172949    0.050212    1.482623
H       3.716638   -2.005434    0.106656
