13

O      -0.105280   -0.056608    0.000916
C      -0.059516    1.141451    0.009615
N       1.133898    1.884840    0.002180
C       1.118067    3.273191    0.013575
C       2.269630    3.958098    0.006165
C       3.562631    3.255008   -0.014724
O       4.627260    3.830642   -0.020412
N       3.505461    1.830870   -0.024643
C       2.372254    1.243553   -0.016605
H      -0.945699    1.800688    0.025104
H       0.133758    3.728239    0.028461
H       2.278544    5.040138    0.015079
H       2.292107    0.160195   -0.024090
