23

C       0.610882    1.447894   -0.332349
C       0.053664    0.083738    0.075691
O       0.111897   -0.820367   -1.040701
C       0.997192   -1.886659   -0.784218
C       0.604831   -3.139448   -1.515349
C       2.437921   -1.518216   -0.513616
C       1.474984   -1.805809    0.631514
C       0.747688   -0.637496    1.281226
C       1.615550    0.242972    2.185662
H       1.680418    1.416722   -0.555850
H       0.090791    1.789316   -1.231684
H       0.447091    2.188898    0.456536
H      -1.011220    0.222169    0.303987
H       0.611600   -2.972897   -2.597700
H       1.302659   -3.951370   -1.292317
H      -0.403252   -3.456213   -1.228436
H       3.195594   -2.269745   -0.712339
H       2.761746   -0.500917   -0.700993
H       1.637406   -2.698691    1.226308
H      -0.046385   -1.068688    1.903584
H       2.465888    0.667822    1.644981
H       1.041553    1.069043    2.618130
H       2.015556   -0.348979    3.015053
