18

C      -0.339376    1.667470    0.226622
N      -0.257445    0.321686    0.790600
C       0.385040   -0.706398    0.013358
C       1.040905   -0.209392    1.270624
C       2.307077    0.571393    1.135303
O       2.628680    1.181078    0.133348
C       3.215240    0.615681    2.336016
C       2.680964    0.915388    3.681406
O       3.081246   -0.400960    3.333344
H       0.523504    1.955752   -0.383785
H      -1.244187    1.710173   -0.387373
H      -0.451799    2.387202    1.043633
H      -0.083774   -1.687051    0.025669
H       0.873598   -0.421075   -0.916782
H       0.961684   -0.801244    2.175890
H       4.234115    0.916153    2.099947
H       3.322626    1.434131    4.391267
H       1.610423    1.062012    3.814933
