17

O       0.068797    0.014587   -0.344102
C       0.007671    1.166980   -0.030548
C      -1.144755    2.115110    0.338013
C      -0.078966    3.109317    0.870021
C       1.059202    2.254246    0.248361
O      -0.160666    4.488018    0.433661
C       0.034501    4.937775    1.779909
C      -1.098572    4.501754    2.650605
C       0.025169    3.533693    2.330370
H      -1.647477    2.505825   -0.553515
H      -1.896576    1.740267    1.037029
H       1.904419    1.976805    0.883439
H       1.437410    2.705194   -0.675293
H       0.680981    5.791351    1.942370
H      -1.085636    4.882496    3.667315
H      -2.086097    4.370740    2.216934
H       0.641732    3.060112    3.082275
