10

C      -0.220809    1.469196    0.027330
C       0.209281    0.025158    0.061352
O       0.614146   -0.563951    1.025741
C       0.097518   -0.717800   -1.300842
F      -1.174273   -0.689663   -1.731746
F       0.852994   -0.096821   -2.221473
F       0.488072   -1.977740   -1.209324
H       0.383307    2.018713   -0.701869
H      -1.261728    1.538096   -0.304929
H      -0.110257    1.909134    1.018113
