17

C      -0.029145    1.571293    0.012050
C      -0.097278    0.046197   -0.082694
C       0.755278   -0.503964   -1.242262
O       2.121261   -0.141627   -1.138354
C       0.599051   -1.995026   -1.356419
N      -0.176104   -2.682350   -2.140866
C       0.102112   -3.970138   -1.749668
N       0.984192   -4.089787   -0.797214
O       1.321718   -2.755218   -0.522354
H       1.005443    1.906259    0.119198
H      -0.441244    2.039852   -0.888110
H      -0.601350    1.933171    0.870796
H       0.252024   -0.412865    0.851836
H      -1.132146   -0.286435   -0.225265
H       0.402687   -0.077023   -2.185845
H       2.488141   -0.576190   -0.359486
H      -0.362650   -4.839497   -2.191740
