13

N       0.059535   -1.160986    0.021088
C       0.041730   -0.005248    0.028095
C       0.015427    1.431741    0.059818
C       0.435829    2.230703    1.284446
C       1.640455    1.566860    1.943179
O       2.365904    1.549299    0.673367
C       1.306822    2.243244    0.042942
C       1.588046    3.244648   -0.937294
N       1.792409    4.060297   -1.730891
H      -0.797531    1.889641   -0.495448
H      -0.196191    3.001629    1.701484
H       2.152776    2.215515    2.657999
H       1.503807    0.562634    2.352108
