16

N      -0.007663    1.019838   -0.718006
C       0.019882   -0.030930    0.137368
O       0.958053   -0.345122    0.838315
C      -1.268340   -0.872374    0.139445
O      -2.364891   -0.165538   -0.431170
C      -3.171195   -1.136297   -1.068207
C      -2.719158   -1.572354   -2.443750
C      -2.320306   -2.352969   -1.211088
O      -1.062478   -2.023010   -0.666890
H       0.781464    1.643888   -0.743952
H      -0.874218    1.274458   -1.161065
H      -1.496319   -1.165613    1.175368
H      -4.212278   -1.131631   -0.767489
H      -3.464416   -2.009514   -3.100635
H      -1.944843   -0.987243   -2.926247
H      -2.649533   -3.369591   -1.028829
