23

C      -0.051407    1.592775   -0.108937
C      -0.033228    0.064311   -0.189916
C      -1.370077   -0.572286    0.220736
C      -1.384254   -2.080215    0.117461
C      -1.673485   -2.775520   -1.192355
C      -2.647557   -2.897539   -0.046015
C      -2.474624   -4.116514    0.838949
O      -1.072864   -4.214192    1.079157
C      -0.531236   -2.897532    1.081104
H       0.911173    2.020431   -0.406003
H      -0.820271    2.014590   -0.766149
H      -0.266891    1.933673    0.909975
H       0.213577   -0.250771   -1.211525
H       0.769225   -0.325089    0.449678
H      -1.609649   -0.274795    1.251959
H      -2.170411   -0.161124   -0.408305
H      -1.968140   -2.150385   -2.028760
H      -1.087156   -3.649231   -1.460726
H      -3.621510   -2.425451   -0.109365
H      -3.034074   -3.986315    1.780363
H      -2.789104   -5.060347    0.380458
H       0.522499   -2.984424    0.795548
H      -0.579476   -2.446068    2.087644
