18

C       0.105983    1.622838   -0.166327
C      -0.057394    0.116395    0.060875
N       0.562560   -0.690020   -0.982694
C       1.809577   -1.143927   -0.608312
O       2.661564   -1.632364   -1.295260
O       1.940380   -0.952943    0.743045
C       0.723065   -0.432472    1.259047
C       0.768408    0.169048    2.621199
C       0.099366   -1.179019    2.398087
H       1.164366    1.897397   -0.205326
H      -0.364295    1.922652   -1.108700
H      -0.369866    2.191164    0.638537
H      -1.120366   -0.131038    0.156500
H       0.421250   -0.492574   -1.960536
H       1.730335    0.174534    3.120669
H       0.143628    1.031141    2.828392
H      -0.983098   -1.234503    2.448067
H       0.623419   -2.060028    2.750014
