15

C      -0.103072    1.529024   -0.003324
C      -0.034514    0.007682    0.001717
C       1.183804   -0.604770   -0.744016
O       2.005445   -0.394126    0.461946
C       0.744349   -0.618160    1.192187
C       0.637395   -2.125927    0.945578
O       0.371452   -3.039534    1.668717
C       0.985363   -2.115324   -0.587591
O       1.060355   -3.018542   -1.366633
H       0.873862    1.963839    0.221399
H      -0.428768    1.894660   -0.982097
H      -0.820438    1.882726    0.743702
H      -1.008480   -0.441783   -0.222451
H       1.604190   -0.211316   -1.667565
H       0.723695   -0.238139    2.211810
