17

O      -0.083195    1.438871   -0.061236
C      -0.022740    0.039388   -0.024937
C      -1.424646   -0.607613    0.071884
C      -1.406929   -1.975196   -0.609502
C      -0.089644   -2.755264   -0.385640
C       0.368201   -1.932178   -1.604594
O      -1.027306   -1.771225   -2.009774
C       0.747279   -0.505854   -1.233812
O       1.505674    0.197274   -1.860158
H       0.602579    1.710003   -0.691110
H       0.568564   -0.289343    0.851100
H      -1.747112   -0.686365    1.115408
H      -2.134816    0.037590   -0.453482
H      -2.356817   -2.507742   -0.523369
H       0.441140   -2.649834    0.562108
H      -0.193854   -3.809801   -0.644080
H       1.004654   -2.360557   -2.380091
