19

C      -1.057944    1.022536    0.253762
C      -0.024751   -0.062394    0.086829
N       0.929872   -0.379835    0.860827
O      -0.231515   -0.722053   -1.073348
C       0.684428   -1.788167   -1.374726
C       0.193489   -2.472507   -2.617948
C      -1.185035   -3.069712   -2.637469
N       1.035763   -2.519839   -3.578362
O       0.539298   -3.232440   -4.676997
H      -0.904319    1.568372    1.185831
H      -1.006436    1.722851   -0.585340
H      -2.063262    0.590335    0.252463
H       0.936373    0.215530    1.685553
H       1.691874   -1.394063   -1.523877
H       0.712255   -2.479284   -0.523705
H      -1.140907   -4.141283   -2.407638
H      -1.820338   -2.583470   -1.895315
H      -1.632308   -2.970724   -3.628313
H       1.257563   -3.148899   -5.313044
