20

C      -0.889397    1.430963   -0.160208
N      -0.633917   -0.002408   -0.095791
C      -1.372692   -0.880328    0.871070
C      -0.265819   -1.956034    0.622584
C      -0.072972   -2.733115    1.902131
O      -0.203675   -1.685706    2.872986
C      -0.436478   -0.517111    2.093982
C      -0.573612    0.631313    3.063311
C       0.442825   -0.570983    0.783146
H      -0.057306    1.904019   -0.692899
H      -1.791338    1.587493   -0.762249
H      -1.029122    1.965141    0.787967
H      -2.456344   -1.013551    0.840582
H      -0.229833   -2.445441   -0.347720
H      -0.839586   -3.500727    2.067632
H       0.915021   -3.203667    1.984321
H       0.312738    0.660405    3.704953
H      -0.680013    1.599318    2.579955
H      -1.441739    0.464163    3.708677
H       1.501104   -0.338647    0.644825
