21

C      -1.294586    1.049412   -0.024300
C      -0.118049    0.103746    0.144583
O       0.459769   -0.128577   -1.125201
C       1.565462   -0.996951   -1.084162
C       2.076949   -1.151356   -2.508118
O       3.188316   -2.022419   -2.474448
C       3.760359   -2.251608   -3.734481
C       4.936134   -3.196699   -3.557839
O       5.624712   -3.580957   -4.464773
H      -0.964703    1.999657   -0.453648
H      -2.044272    0.614170   -0.691129
H      -1.764153    1.249434    0.943335
H       0.632409    0.535442    0.828174
H      -0.447121   -0.850089    0.590411
H       2.368169   -0.596118   -0.443802
H       1.286637   -1.984462   -0.681531
H       1.278235   -1.555361   -3.149663
H       2.359638   -0.166434   -2.911601
H       3.043403   -2.705527   -4.439873
H       4.121952   -1.319717   -4.202028
H       5.103921   -3.503885   -2.501911
