17

C      -0.055790    1.528588    0.039252
C       0.090053    0.041458    0.014007
N      -0.843731   -0.883846    0.705937
C       0.607708   -0.923060    1.002592
C       1.317743   -1.753925   -0.115057
C       0.354831   -2.192764   -1.203934
C       0.759930   -0.755507   -1.152136
C       2.646656   -2.239684    0.004074
N       3.733113   -2.624819    0.122960
H       0.877502    2.018319   -0.258612
H      -0.842728    1.861629   -0.647444
H      -0.312262    1.878583    1.044658
H      -1.288984   -0.360553    1.459289
H       0.999526   -0.781403    2.001167
H       0.819749   -2.770887   -1.995168
H      -0.644843   -2.491818   -0.918231
H       1.331199   -0.275712   -1.935782
