21

C      -0.136415    1.501642    0.040774
C       0.023278   -0.015043    0.003954
C       0.612505   -0.487867   -1.331224
C       0.590938   -2.004824   -1.540613
O       0.904974   -2.221518   -2.913623
C       1.531437   -2.772676   -0.635987
C       1.609853   -2.663606    0.688362
C       0.800692   -1.705944    1.535976
O       0.838081   -0.353391    1.119846
H       0.834383    1.989266   -0.092109
H      -0.806674    1.841324   -0.754099
H      -0.545897    1.813714    1.004885
H      -0.969641   -0.482221    0.137891
H       0.030732   -0.046267   -2.148005
H       1.640868   -0.122302   -1.421553
H      -0.440536   -2.351491   -1.340187
H       0.851099   -3.166902   -3.085831
H       2.182533   -3.477581   -1.150264
H       2.309545   -3.300166    1.224465
H      -0.248042   -2.049883    1.596290
H       1.193793   -1.705685    2.557085
