21

C       0.093844    1.669856   -0.215479
C       0.035306    0.155142    0.011338
C       0.687223   -0.678523   -1.126505
C       1.352212   -1.891679   -0.433713
C       1.504352   -1.426732    0.999615
C       2.347439   -2.177289    2.000903
C       1.929027   -3.568439    2.174790
C       1.573870   -4.709446    2.303156
C       0.786857   -0.327820    1.232469
H       1.131202    2.010615   -0.307662
H      -0.436073    1.951116   -1.131936
H      -0.366218    2.216180    0.615036
H      -1.024584   -0.125953    0.116642
H      -0.027503   -0.966629   -1.902036
H       1.458769   -0.068212   -1.609945
H       0.722385   -2.790485   -0.473607
H       2.308485   -2.171221   -0.892509
H       3.398584   -2.167784    1.675496
H       2.320297   -1.661586    2.968083
H       1.264261   -5.717710    2.424162
H       0.705107    0.165141    2.196849
