16

C      -0.014360    1.561309    0.058103
C      -0.019206    0.034444   -0.034813
C      -1.456345   -0.569785    0.022645
C      -2.217952   -0.181147   -1.255538
O      -3.048571    0.682475   -1.296562
C      -1.423570   -2.015693    0.151292
C      -1.399501   -3.222244    0.221513
C      -1.367686   -4.584069    0.311490
N      -1.338850   -5.742960    0.386829
H       1.010021    1.939145   -0.001024
H      -0.591294    2.021960   -0.748749
H      -0.443288    1.899885    1.006678
H       0.463053   -0.300684   -0.960672
H       0.556720   -0.400136    0.787746
H      -2.000202   -0.130926    0.867361
H      -1.904865   -0.748713   -2.158698
