21

C      -0.178730    1.571330   -0.013764
C      -0.000469    0.057800    0.006309
C       0.947132   -0.577078   -1.102040
C       2.031543   -0.724215   -0.006536
C       3.059903   -1.629205    0.737860
C       3.026992   -0.368624    1.692083
C       2.941502    0.477978    0.414574
O       1.672908   -0.243979    2.214797
C       0.948391   -0.659394    1.046479
H       0.755388    2.115299   -0.163822
H      -0.853825    1.855775   -0.828460
H      -0.622840    1.920899    0.923999
H      -0.994355   -0.398983    0.024730
H       0.558451   -1.528906   -1.472868
H       1.202001    0.056899   -1.954881
H       2.700732   -2.585510    1.125515
H       4.039866   -1.739670    0.268767
H       3.745909   -0.210144    2.493987
H       3.864803    0.505897   -0.168887
H       2.521952    1.475897    0.529318
H       0.498724   -1.638545    1.256730
