20

C      -0.262769    1.377626   -0.290516
C      -0.004975   -0.116287   -0.308984
C       1.155869   -0.708599   -1.116366
C       2.149739   -0.264042   -0.001600
C       2.760360   -1.651259    0.179040
C       1.265010   -1.881484   -0.078604
C       0.532610   -3.197444   -0.028173
O      -0.803842   -3.156257   -0.507741
N       0.887521   -0.656980    0.816886
H       0.661488    1.962154   -0.260313
H      -0.821147    1.679971   -1.183356
H      -0.861703    1.647120    0.585630
H      -0.944375   -0.672619   -0.357296
H       1.335600   -0.746586   -2.198682
H       2.616955    0.711411    0.130893
H       3.453667   -1.995068   -0.593407
H       3.118126   -1.892492    1.184056
H       1.128301   -3.948703   -0.572143
H       0.469449   -3.526108    1.014816
H      -0.770787   -2.957820   -1.449152
