19

C       0.012497    1.318886   -0.629564
C      -0.348321    0.214120    0.360275
O      -0.663867    0.849531    1.599116
C      -1.520211   -0.617756   -0.167087
N      -2.741792   -0.269949    0.351404
N      -1.256348   -1.544039   -1.009651
C      -2.364957   -2.350797   -1.518520
C      -3.387076   -1.611962   -2.269992
C      -4.224059   -0.978478   -2.858980
H       0.857029    1.899300   -0.249031
H       0.277144    0.878264   -1.592565
H      -0.836054    1.995346   -0.772895
H       0.505592   -0.464283    0.472427
H      -0.737358    0.166230    2.273776
H      -2.748179    0.578044    0.898673
H      -3.563593   -0.456282   -0.203829
H      -1.944679   -3.123258   -2.172014
H      -2.865022   -2.884903   -0.692916
H      -4.952245   -0.433569   -3.407390
