16

N       0.049006    1.387498    0.203951
C      -0.094116    0.025242    0.075457
C      -1.158756   -0.817048   -0.046402
C      -2.647992   -0.958500   -0.190226
N      -2.889787   -2.417537    0.026920
C      -1.615094   -3.151942   -0.200367
C      -0.555793   -2.092895   -0.043360
N       0.742916   -2.086050    0.074365
O       1.046880   -0.692011    0.152842
H       0.980247    1.720835   -0.003090
H      -0.666959    1.931341   -0.253902
H      -3.236424   -0.377068    0.526907
H      -2.994775   -0.675170   -1.194077
H      -3.141021   -2.539824    1.001236
H      -1.519348   -3.988283    0.496365
H      -1.592399   -3.567267   -1.216222
