17

O      -0.105811    0.130938    0.663443
C      -0.063593    1.297021    0.395185
O      -1.170201    2.084635    0.409171
C      -0.862041    3.436879    0.043508
C       0.671253    3.577297    0.131786
C       1.213826    3.996645    1.480687
C       2.085895    3.117703    1.972833
C       2.301884    1.940764    1.051902
C       1.170136    2.119752    0.013869
H      -1.231065    3.613605   -0.973002
H      -1.397078    4.098238    0.730168
H       1.030528    4.238840   -0.664221
H       0.923005    4.928480    1.953754
H       2.616661    3.224812    2.912221
H       3.293008    1.982420    0.582632
H       2.227493    0.969636    1.552057
H       1.470330    1.826687   -0.995608
