15

C       0.024906    1.420851   -0.062876
O       0.019605   -0.011381   -0.034167
C       0.595232   -0.650259   -1.041197
C       0.729369   -2.003525   -1.260903
C       0.254586   -3.077686   -0.410671
O       0.399939   -4.259511   -0.651946
C       1.441102   -2.103591   -2.513815
C       1.672470   -0.846819   -2.938745
O       1.150793    0.067742   -2.029703
H       1.048456    1.806037   -0.064031
H      -0.504319    1.794124   -0.944138
H      -0.491864    1.730748    0.844667
H      -0.269727   -2.740045    0.509385
H       1.723793   -3.023077   -3.000251
H       2.154191   -0.406980   -3.794234
