20

C       0.068057    1.607813    0.122636
C       0.020557    0.076985    0.065303
C       0.674334   -0.525542   -1.175109
C       0.847136   -2.057536   -1.264776
C      -0.476473   -2.770857   -1.421404
C       0.108771   -2.034974   -2.593746
N      -0.103134   -0.607882   -2.444324
C      -0.793992    0.270197   -3.199697
O      -0.932525    1.458698   -2.982416
H       1.104709    1.963470    0.139918
H      -0.422555    2.042295   -0.750575
H      -0.422616    1.975345    1.029100
H       0.549222   -0.343036    0.931734
H      -1.014731   -0.274126    0.136390
H       1.631147   -0.025286   -1.371567
H       1.758813   -2.580143   -1.012122
H      -0.396538   -3.852633   -1.467213
H      -1.379836   -2.400929   -0.947088
H       0.359467   -2.476420   -3.550347
H      -1.223679   -0.232142   -4.092013
