12

N       0.011100    1.363030    0.148383
C      -0.055108   -0.003341    0.046977
C      -1.169983   -0.757386    0.013181
O      -1.095749   -2.140003   -0.027648
C       0.116614   -2.665136   -0.028527
F       0.026718   -3.969673   -0.050374
N       1.247076   -2.088100   -0.015861
C       1.266552   -0.691297    0.004403
O       2.295532   -0.048648   -0.022020
H       0.933375    1.715857   -0.073228
H      -0.760263    1.909966   -0.198391
H      -2.195902   -0.422026    0.020206
