16

O       0.074475   -0.036103    0.081351
C       0.045358    1.172522    0.101642
N      -1.058773    1.960193    0.268952
C      -0.843047    3.393432    0.179217
C       0.693432    3.535909    0.249117
O       1.162399    3.824906    1.561515
C       1.787702    2.656970    2.068259
O       2.239187    1.922042    0.958261
C       1.257775    2.126087   -0.040103
H      -1.974592    1.541513    0.321688
H      -1.230986    3.805350   -0.762140
H      -1.309011    3.933070    1.008969
H       1.054383    4.318101   -0.422746
H       2.648731    2.941315    2.679236
H       1.070804    2.069509    2.666343
H       1.728866    1.995995   -1.015920
