19

C      -0.177085    1.524409   -0.019237
C       0.038626    0.014278   -0.022426
C       0.967859   -0.574149   -1.147315
C       2.474123   -0.427525   -0.704010
C       1.887934   -1.380189    0.346984
C       1.908876   -2.279663    1.583051
O       0.646061   -1.675893    2.004823
C       0.905522   -0.527747    1.143848
O       1.035637   -1.949647   -0.690802
H       0.769870    2.068017    0.073735
H      -0.659338    1.856688   -0.944649
H      -0.815893    1.828515    0.815980
H      -0.915844   -0.513376   -0.096537
H       0.665146   -0.456146   -2.188751
H       3.127981   -0.898320   -1.438498
H       2.862789    0.538143   -0.370485
H       1.817178   -3.353167    1.399465
H       2.714145   -2.073750    2.298632
H       1.344861    0.281496    1.741721
