17

O       0.000363    1.450442   -0.021470
C       0.013034    0.045199   -0.036219
C      -1.436487   -0.493878   -0.047773
O      -1.456130   -1.889387   -0.269177
C      -0.978681   -2.258785   -1.550805
C       0.264230   -1.519829   -1.957318
C       0.725744   -0.480213   -1.266355
C       0.732837   -0.463421    1.207782
O       1.262073    0.294768    1.985067
H       0.496361    1.705546    0.774302
H      -1.930828   -0.317471    0.911545
H      -1.984204    0.056961   -0.826465
H      -0.793592   -3.338293   -1.507727
H      -1.763088   -2.100641   -2.312897
H       0.753715   -1.852172   -2.868956
H       1.614555    0.067289   -1.564414
H       0.737337   -1.559625    1.348479
