13

N      -0.057135   -1.036675   -0.136601
C      -0.031184    0.115177   -0.053072
C       0.023812    1.546302    0.090592
C      -0.649454    2.446118    1.162995
C      -0.032047    3.334976    0.048670
C       1.264766    2.480654    0.086172
O      -0.585024    2.398254   -0.964404
C      -0.176105    4.751536   -0.162048
N      -0.273777    5.894313   -0.299621
H      -1.737609    2.412305    1.169688
H      -0.198178    2.483457    2.155200
H       1.877349    2.520895    0.987636
H       1.836016    2.476774   -0.840613
