21

C       0.398159    1.514007   -0.077492
C       1.461717    0.472726    0.188800
C       0.022549    0.064795   -0.005451
C      -0.788562   -0.543153    1.142053
C      -1.255303   -1.904209    0.556348
O      -0.618863   -2.049864   -0.713794
C      -0.396310   -0.749456   -1.200828
C      -1.317576   -0.229500   -2.280052
C       0.120419   -0.622477   -2.588394
H       0.095091    2.162013    0.738583
H       0.394277    2.000775   -1.048451
H       2.168558    0.251388   -0.603792
H       1.877323    0.412449    1.189603
H      -0.185786   -0.667988    2.045253
H      -1.648897    0.081389    1.401539
H      -0.965186   -2.762450    1.168026
H      -2.347886   -1.920790    0.436250
H      -2.097042   -0.898714   -2.626703
H      -1.574843    0.824278   -2.286218
H       0.836751    0.163455   -2.807108
H       0.282221   -1.544051   -3.135942
