22

C      -0.006449    1.661152   -0.078845
C      -0.092242    0.131370   -0.021588
C       0.708465   -0.487008    1.121624
C       0.719339   -2.051426    1.277887
C      -0.024907   -2.929067    0.279678
C       2.248468   -1.933931    1.098639
O       3.188989   -2.688359    1.104616
N       2.168957   -0.572869    0.936451
C       3.221388    0.411795    0.909895
H       1.016622    2.004682   -0.259894
H      -0.633696    2.058253   -0.882585
H      -0.345825    2.111295    0.860689
H      -1.141909   -0.163916    0.103912
H       0.242197   -0.297604   -0.972719
H       0.448384    0.020630    2.062440
H       0.473209   -2.352589    2.301163
H       0.214862   -2.667051   -0.754684
H       0.259117   -3.974890    0.428973
H      -1.109414   -2.852752    0.408552
H       4.170301   -0.123797    0.998644
H       3.231863    0.985441   -0.023810
H       3.131235    1.114535    1.747894
