16

C      -0.100861    1.404570    0.029375
O      -0.013193   -0.018870   -0.034406
C       0.644909   -0.550958   -1.156702
C       0.567930   -2.092019   -1.005517
N      -0.821763   -2.499386   -1.021367
C       0.000599   -0.122507   -2.425297
N      -0.489906    0.240293   -3.405371
C       2.072048   -0.134483   -1.186766
N       3.186263    0.168162   -1.167748
H       0.895856    1.860757    0.061094
H      -0.661594    1.806038   -0.822572
H      -0.632595    1.627894    0.954810
H       1.092261   -2.544346   -1.851579
H       1.129451   -2.331966   -0.089484
H      -0.900584   -3.502179   -1.137960
H      -1.276483   -2.243954   -0.152648
