21

C      -0.151214    1.522016   -0.071172
C      -0.008542   -0.002032    0.008460
C       0.721067   -0.563092   -1.218834
C       0.721357   -0.446973    1.290091
N       0.038279   -0.084519    2.534663
C      -1.076340   -0.855305    2.890090
N      -1.872246   -0.584479    3.837828
C       0.543822    0.968657    3.297398
O       0.104667    1.390679    4.331747
H       0.831926    2.005944   -0.118455
H      -0.705132    1.811888   -0.969220
H      -0.685675    1.925560    0.793449
H      -1.016530   -0.439294    0.036691
H       1.738735   -0.160676   -1.288880
H       0.796005   -1.655201   -1.180741
H       0.196789   -0.295335   -2.140847
H       0.865626   -1.533801    1.274857
H       1.720981   -0.000816    1.315152
H      -1.159766   -1.730670    2.233038
H      -2.581484   -1.314082    3.901436
H       1.453289    1.382158    2.816142
