21

O       0.354109    0.521863   -1.079347
C       0.014041   -0.357033   -0.038706
C       0.112033    0.095532    1.445064
C      -1.133600   -0.790407    1.727068
O      -2.088788   -0.400567    2.679263
C      -1.482761   -0.742069    0.202984
C      -2.454670    0.358178   -0.158624
C      -3.128610    0.360954   -1.512145
C      -3.931944    0.057710   -0.275515
H      -0.280553    1.245543   -1.079645
H       0.616893   -1.254210   -0.205343
H       1.033846   -0.104479    1.995089
H      -0.133775    1.159135    1.546361
H      -0.827295   -1.799562    2.016740
H      -2.518283    0.400342    2.362106
H      -1.819484   -1.681593   -0.246451
H      -2.216002    1.344421    0.238268
H      -3.289442    1.311647   -2.008363
H      -2.895632   -0.456968   -2.185035
H      -4.245658   -0.966584   -0.106813
H      -4.640538    0.801632    0.071460
