23

O      -0.104535    1.503003    0.171949
C       0.041244    0.118640   -0.115738
C      -1.301151   -0.538035    0.190448
C      -1.367650   -2.057437    0.076677
C      -0.323995   -2.825967   -0.710253
C      -0.333883   -2.895381    0.798103
C      -2.755913   -2.651832    0.038668
C      -3.959959   -2.005671    0.679204
C      -3.870336   -2.111699   -0.824659
H       0.722012    1.942564   -0.047183
H       0.306601   -0.036241   -1.172382
H       0.843889   -0.324736    0.494358
H      -1.585520   -0.237928    1.206347
H      -2.036132   -0.079182   -0.481283
H      -0.656649   -3.696081   -1.266679
H       0.485924   -2.287858   -1.188936
H       0.462615   -2.391879    1.335570
H      -0.667048   -3.813581    1.270775
H      -2.735601   -3.737003    0.109552
H      -4.664470   -2.640827    1.205029
H      -3.844520   -1.020695    1.116962
H      -3.699522   -1.198700   -1.384507
H      -4.509398   -2.824597   -1.334315
