20

C      -0.049727    1.524393   -0.060964
C       0.029343   -0.003006    0.052896
C       0.834138   -0.420994    1.289802
C      -1.395221   -0.610999    0.049960
C      -1.426573   -2.099036   -0.094959
N      -1.556973   -2.689758   -1.276616
N      -1.511874   -4.004514   -0.951922
C      -1.364947   -4.152210    0.378165
N      -1.306601   -2.970176    0.957070
H       0.950676    1.969068   -0.081978
H      -0.574520    1.833132   -0.971306
H      -0.584487    1.954332    0.794770
H       0.543437   -0.385140   -0.839561
H       0.885242   -1.507683    1.392056
H       1.855863   -0.029886    1.238544
H       0.372065   -0.027958    2.203539
H      -1.906412   -0.337653    0.980184
H      -1.963313   -0.180397   -0.780467
H      -1.602866   -4.703143   -1.670767
H      -1.310864   -5.113755    0.866541
