21

C      -0.108100    1.591318    0.074983
C       0.011827    0.048907    0.026447
C       0.696338   -0.456808    1.319358
C      -1.337128   -0.526349   -0.043407
C      -2.442137   -0.998414   -0.070633
C       0.809330   -0.441012   -1.222361
O       0.194013   -0.049433   -2.450494
C       2.290374   -0.038570   -1.275566
O       2.879134   -0.533091   -2.459494
H       0.874763    2.064435    0.154271
H      -0.621066    1.986117   -0.807761
H      -0.699753    1.889524    0.944139
H       0.064792   -0.242962    2.185264
H       0.857745   -1.537958    1.280010
H       1.661336    0.034558    1.473144
H      -3.416799   -1.418194   -0.109346
H       0.762003   -1.534979   -1.236597
H       0.126762    0.912313   -2.459468
H       2.385654    1.059955   -1.213756
H       2.846150   -0.464695   -0.435388
H       2.208547   -0.413844   -3.145354
