18

C       0.061003    1.448339    0.229299
C      -0.057139   -0.056807    0.205886
C      -1.340039   -0.710220   -0.074655
O      -0.313692   -0.653150   -1.066214
C       1.461624    1.932007    0.005062
N       2.521492    1.237233    0.065752
C       3.640084    2.153094   -0.200932
C       2.971886    3.537407   -0.412688
O       1.560165    3.264193   -0.262918
H      -0.592399    1.884438   -0.533300
H      -0.282602    1.840443    1.196432
H       0.681189   -0.586641    0.804485
H      -1.545696   -1.698297    0.334616
H      -2.221521   -0.102470   -0.278544
H       4.337326    2.149173    0.643441
H       4.195981    1.815769   -1.081980
H       3.258427    4.281494    0.335945
H       3.135454    3.956887   -1.409053
