17

C      -0.032023    1.473322   -0.108527
C      -0.005199   -0.033995   -0.106473
O       1.015256   -0.692475   -0.114912
C      -1.322554   -0.738425   -0.074749
N      -2.472283   -0.154319    0.038504
C      -3.461080   -1.190948    0.059495
C      -3.583318   -2.098843   -1.149994
C      -2.699553   -2.545474   -0.021897
N      -1.340989   -2.106469   -0.114179
H       0.977130    1.857132    0.043683
H      -0.422029    1.829452   -1.068437
H      -0.717574    1.843642    0.657626
H      -4.341949   -1.010608    0.665038
H      -4.533378   -2.611013   -1.252913
H      -3.119117   -1.790972   -2.081102
H      -2.907048   -3.435225    0.560674
H      -0.522984   -2.656693    0.083965
