15

O       0.049356   -0.088405   -0.103098
C      -0.036588    1.129481   -0.054617
C       1.206689    1.943698   -0.098445
N       2.175881    2.574284   -0.130871
C      -1.245571    1.899569    0.031801
C      -2.487260    1.340240    0.091392
N      -3.471829    2.259424    0.204953
C      -2.931457    3.613060   -0.013858
C      -1.396755    3.412372    0.137603
H      -2.713846    0.282163    0.078968
H      -4.434795    2.037998    0.012284
H      -3.194606    3.964438   -1.019792
H      -3.344450    4.317794    0.711650
H      -1.049612    3.779449    1.110584
H      -0.840029    3.961194   -0.625673
