18

C      -0.224534    1.415300   -0.079708
C      -0.101129   -0.080017    0.002466
N      -0.056178   -0.771021    1.077917
O      -0.098220    0.038460    2.216856
C      -0.009103   -0.858892   -1.254103
C       1.072558   -0.794891   -2.377926
C      -0.126955   -1.635654   -2.865884
C      -0.164756   -2.374838   -1.507295
O      -1.040257   -0.608697   -2.308051
H       0.738797    1.895238    0.128708
H      -0.556393    1.711158   -1.076160
H      -0.932151    1.777186    0.669562
H      -0.094339   -0.610439    2.928760
H       1.185553    0.176382   -2.860803
H       2.023956   -1.300142   -2.193954
H      -0.349263   -2.007490   -3.865141
H       0.673191   -3.024155   -1.245895
H      -1.133416   -2.787516   -1.226530
