19

C       0.036384    1.475197   -0.004507
C       0.029641   -0.013796    0.004794
C       0.058295   -0.917424   -0.975862
C       0.034197   -2.286787   -0.270829
C      -1.072594   -3.183378   -0.886236
O      -2.072217   -2.372497   -0.147980
C      -0.991817   -2.072849    0.797419
C      -0.030132   -0.895901    1.250829
C       1.093747   -2.009481    0.884899
H       0.895252    1.881785    0.545092
H       0.073026    1.864270   -1.025935
H      -0.862228    1.879169    0.479132
H       0.101988   -0.779126   -2.048134
H      -1.233749   -3.123290   -1.966345
H      -1.093594   -4.224621   -0.544019
H      -1.027225   -2.839287    1.582339
H      -0.068610   -0.432728    2.238741
H       1.199282   -2.801974    1.630598
H       2.065578   -1.609551    0.588414
