13

N      -0.089262   -1.196590   -0.137184
C      -0.037806   -0.045192   -0.043899
C       0.072216    1.412512    0.068928
C      -0.166314    1.944924    1.515520
C       1.385211    2.016279    1.626770
N       1.461546    1.925892    0.149505
C       1.975413    3.223029    2.203617
N       2.432441    4.173182    2.675948
H      -0.520520    1.876512   -0.724527
H      -0.632223    2.929189    1.512187
H      -0.675272    1.282476    2.212083
H       1.788742    1.142819    2.154969
H       2.187968    1.324398   -0.223950
