16

N       0.099659    1.442914    0.588009
C       0.086136    0.187610    0.297352
C      -1.274207   -0.453610    0.345788
O      -1.502482   -1.613224    0.105442
N       1.134410   -0.608212   -0.022230
C       1.270434   -1.976826   -0.547453
C       2.784015   -1.689847   -0.759931
C       2.525801   -0.237916   -0.264233
H       1.043519    1.832534    0.541700
H      -2.057848    0.274824    0.630553
H       1.024321   -2.758063    0.175817
H       0.696558   -2.160298   -1.460367
H       3.446561   -2.269260   -0.116587
H       3.129066   -1.767451   -1.790900
H       2.645684    0.544684   -1.025401
H       3.071436    0.067170    0.637004
