18

C       0.105347    1.537237   -0.010553
C       0.012988    0.010245   -0.004388
C      -1.452278   -0.475443   -0.018303
O      -2.138073    0.023155   -1.133264
C      -1.529151   -2.009944   -0.049154
O      -1.935715   -2.587350   -1.029831
N      -1.096482   -2.643809    1.112038
C      -1.014482   -4.016027    1.362936
O      -1.289147   -4.895145    0.597978
H       1.147964    1.865228   -0.051224
H      -0.420998    1.942991   -0.877316
H      -0.347568    1.965254    0.890830
H       0.514209   -0.402296   -0.888135
H       0.532102   -0.395559    0.873936
H      -1.951104   -0.121195    0.900244
H      -2.325547   -0.753134   -1.687044
H      -0.816015   -2.043493    1.874456
H      -0.648770   -4.190200    2.395026
