14

N       0.091934   -1.065831    0.030412
C       0.014427    0.087936    0.007789
C      -0.029444    1.519131   -0.023993
O      -1.099406    2.113646    0.666621
C      -1.349590    3.387436    0.049807
C      -0.073391    3.668153   -0.723412
O       1.021859    3.659752    0.253189
C       1.294484    2.313949   -0.089836
C       0.366292    2.288520   -1.266629
H      -2.228739    3.334987   -0.608949
H      -1.522935    4.121415    0.840707
H      -0.054534    4.545054   -1.369439
H       2.278052    1.901744    0.099128
H       0.427981    1.921146   -2.280737
