15

C      -0.063494    1.396055    0.097385
O       0.010230   -0.017540   -0.012682
C       0.621608   -0.528588   -1.085470
C       1.198305    0.158404   -2.114101
C       1.807651   -0.566189   -3.179842
N       1.856429   -1.864654   -3.246457
N       1.278539   -2.513125   -2.216446
C       0.637292   -2.003085   -1.092661
O       0.162333   -2.729291   -0.240412
H       0.937401    1.842804    0.138568
H      -0.619097    1.830253   -0.742762
H      -0.592461    1.598202    1.028712
H       1.206394    1.240791   -2.144032
H       2.270938   -0.037884   -4.005734
H       1.318009   -3.522364   -2.270356
