21

C      -0.129493    1.381252   -0.539045
C      -0.049570   -0.099705   -0.157466
C      -1.404476   -0.666163    0.242965
O      -2.379074   -0.684278   -0.833431
C      -2.611331   -2.115158   -0.747178
C      -2.352212   -2.864341   -2.046629
C      -3.321554   -2.451254   -3.157915
C      -1.545743   -2.190504    0.355087
O      -1.020497   -3.058175    0.984648
H       0.848946    1.759003   -0.849614
H      -0.830687    1.526313   -1.365570
H      -0.473198    1.989203    0.304883
H       0.346956   -0.683650   -0.996204
H       0.635868   -0.247917    0.685910
H      -1.800926   -0.135188    1.121957
H      -3.625645   -2.326012   -0.375102
H      -1.318239   -2.682943   -2.362384
H      -2.436956   -3.937265   -1.835136
H      -3.099016   -2.981066   -4.088650
H      -4.357866   -2.674873   -2.882224
H      -3.248895   -1.377076   -3.349546
