17

N       0.056681    1.355043   -0.102844
C      -0.051830   -0.006773   -0.041687
N      -1.137859   -0.683677   -0.027956
C      -0.723389   -2.079075   -0.053733
C      -0.694860   -2.834276   -1.406163
C       0.031943   -2.040824   -2.444073
C       0.850830   -2.768629   -1.414028
C       0.831272   -2.051675   -0.065979
O       1.160151   -0.645763   -0.040141
H       0.910350    1.737739    0.272869
H      -0.784819    1.846515    0.154274
H      -1.194439   -2.658571    0.744115
H      -1.332823   -3.672044   -1.659264
H       0.058459   -2.492678   -3.430417
H      -0.021611   -0.957359   -2.458437
H       1.565629   -3.534061   -1.690280
H       1.374687   -2.551667    0.736478
