18

C      -0.079185    1.491102    0.011510
C       0.031607   -0.008772   -0.007614
C       0.685675   -0.686332   -1.248447
C       0.114881   -2.130207   -1.141752
C      -0.754614   -1.973502    0.118537
O       0.142500   -1.924592    1.260924
C       0.676387   -0.663422    1.209688
N       1.535241   -0.164583    1.983806
O      -1.261336   -0.670296    0.030704
H       0.919762    1.927418    0.086476
H      -0.562699    1.854896   -0.899078
H      -0.657262    1.819558    0.878251
H       0.347075   -0.183185   -2.156841
H       1.775656   -0.643500   -1.212035
H      -0.502484   -2.395094   -2.002849
H       0.877946   -2.898769   -1.008230
H      -1.536206   -2.704939    0.313106
H       1.817378   -0.834578    2.701445
