18

C      -0.253588    1.490029   -0.336948
C      -0.096798   -0.023272   -0.130536
C      -1.459330   -0.709330   -0.048212
O      -1.645661   -1.764895    0.498613
C       0.817936   -0.645907   -1.186731
C       0.785537   -2.110326   -1.534691
N       0.352274   -1.109841   -2.479290
C      -0.878004   -1.009588   -3.093043
O      -1.527716   -1.941571   -3.499720
H       0.722560    1.981683   -0.372894
H      -0.773604    1.711767   -1.275031
H      -0.826277    1.941529    0.478922
H       0.392119   -0.215880    0.833091
H      -2.299180   -0.157466   -0.527676
H       1.787669   -0.149659   -1.228862
H       1.715938   -2.619487   -1.771209
H       0.017284   -2.725206   -1.075126
H      -1.170928    0.047695   -3.248763
