11

C      -0.061780    1.593135    0.024718
C       1.432536    1.191090    0.013062
C       1.154347    0.137531    1.111873
C       0.059590    0.050406    0.021610
O       1.118426    0.164871   -1.009577
H      -0.460810    2.080112    0.918550
H      -0.430756    2.030281   -0.903679
H       2.316621    1.808654   -0.149035
H       1.851135   -0.700953    1.136198
H       0.868487    0.489053    2.106871
H      -0.710672   -0.706510   -0.130190
