19

O       0.067133    1.416068   -0.040134
C       0.030474    0.007548    0.025485
C       0.836096   -0.565275    1.195685
C       0.747098   -2.095765    1.224019
N      -0.655343   -2.496071    1.289458
C      -1.411647   -2.080549    0.121391
C      -1.427492   -0.538689    0.040109
C      -2.170422    0.064309    1.149631
N      -2.730074    0.592309    2.012893
H      -0.315655    1.764329    0.774822
H       0.475652   -0.334290   -0.916906
H       1.876494   -0.239012    1.105477
H       0.438160   -0.166984    2.136990
H       1.263804   -2.504148    0.333405
H       1.264398   -2.486642    2.105275
H      -0.742301   -3.494663    1.432694
H      -0.987232   -2.448103   -0.832979
H      -2.433116   -2.463832    0.196504
H      -1.915792   -0.225578   -0.889233
