21

C      -0.032060    1.547674   -0.049171
C       0.001168    0.011946    0.035685
C       0.733878   -0.429121    1.315347
C      -1.440536   -0.523936    0.053897
C       0.727030   -0.557990   -1.247884
C       2.180346   -0.075693   -1.338587
O       2.520693    0.904506   -1.945586
C       0.718083   -2.014701   -1.318404
C       0.775833   -3.214592   -1.379045
H       0.969969    1.983054   -0.076508
H      -0.564867    1.884453   -0.944616
H      -0.553312    1.954633    0.823412
H       0.180099   -0.094186    2.198232
H       0.824751   -1.518129    1.366413
H       1.738832    0.001321    1.378910
H      -1.985074   -0.226449   -0.848811
H      -1.461660   -1.614953    0.118443
H      -1.978748   -0.120020    0.917806
H       0.212400   -0.140210   -2.121536
H       2.912545   -0.708017   -0.792472
H       0.804309   -4.274494   -1.442774
