17

C       0.215355    1.584527    0.360820
C       0.228411    0.125886   -0.019960
N       1.305863   -0.476275   -0.303754
N      -1.071136   -0.447301   -0.016701
C      -1.403277   -1.745462   -0.330079
O      -0.601924   -2.604343   -0.639172
C      -2.888782   -2.025161   -0.274772
C      -3.428760   -3.105718   -1.118232
O      -3.242143   -3.288685    0.277845
H       1.236474    1.961994    0.336508
H      -0.400184    2.169269   -0.332957
H      -0.194759    1.725878    1.367852
H       1.124347   -1.454671   -0.531436
H      -1.828084    0.163804    0.249316
H      -3.544114   -1.202430    0.014819
H      -4.462280   -3.044025   -1.454889
H      -2.734262   -3.653133   -1.750628
