15

C      -0.017867    1.524044    0.028923
C       0.001803    0.019887    0.005496
C      -0.021401   -0.669307   -1.175573
C      -0.003672   -2.100189   -1.234201
O      -0.019837   -2.843893   -2.172746
O       0.040434   -2.733364    0.068923
C       0.062125   -2.037304    1.199433
O       0.102348   -2.805618    2.291498
C       0.045254   -0.680667    1.245064
H       0.870953    1.911790    0.539164
H      -0.050334    1.942794   -0.978563
H      -0.888506    1.887991    0.585916
H      -0.054549   -0.163199   -2.131579
H       0.106804   -3.728707    2.003657
H       0.064679   -0.174825    2.199465
