14

N       0.051037   -1.142339   -0.051067
C       0.024825    0.013739   -0.058921
C      -0.059647    1.439795   -0.060087
C      -1.246593    2.277815    0.436171
C      -0.642270    3.483637   -0.365493
N       0.242664    4.180585    0.583174
C       1.216847    3.384722    0.759836
N       1.261650    2.204363   -0.065845
C       0.267433    2.453145   -1.108055
H      -2.163820    1.909117   -0.026579
H      -1.383145    2.418925    1.510143
H      -1.314961    4.143753   -0.904649
H       2.013578    3.533966    1.479713
H       0.520227    2.333175   -2.154570
