15

N      -0.134635   -1.181362   -0.304168
C      -0.082266   -0.039907   -0.133836
C      -0.027791    1.423026    0.049780
O      -0.630796    1.817490    1.283163
C       0.435869    2.231260    2.136588
C       1.476240    1.104361    2.325277
N       2.316462    1.645368    1.194906
C       1.488818    2.908993    1.232206
C       1.392215    1.996366    0.083090
H      -0.591433    1.877004   -0.774843
H       0.008448    2.736713    3.000019
H       2.052175    1.205418    3.247695
H       1.131808    0.073124    2.212658
H       1.901269    3.909544    1.248883
H       1.895421    2.189629   -0.856310
