18

C      -0.019024    1.446540    0.038803
N      -0.003183    0.001209    0.055155
C      -0.013904   -0.755114   -1.109454
O      -0.038947   -0.305657   -2.234683
C       0.012222   -2.220361   -0.660081
C       0.037991   -2.129601    0.840258
C       0.028013   -0.839240    1.190904
C       0.044085   -0.235451    2.558687
O       0.078372   -1.280880    3.506931
H       0.878125    1.869220    0.505709
H      -0.046584    1.746764   -1.010400
H      -0.902350    1.849726    0.547270
H      -0.867000   -2.738806   -1.060753
H       0.888775   -2.717326   -1.092515
H       0.060651   -2.957689    1.529005
H       0.919066    0.430731    2.656015
H      -0.847555    0.402476    2.688858
H       0.085204   -0.888486    4.384240
