12

O       0.062994    0.546852    1.465798
C      -0.011526    1.415429    0.630363
C       1.128899    1.946095   -0.073547
C       2.079749    2.391270   -0.661551
C      -1.378772    1.988465    0.253015
C      -2.533626    1.050314    0.306509
O      -2.319957    2.005080    1.325301
C      -1.429000    3.123705   -0.644858
N      -1.461809    4.023184   -1.369068
H       2.917937    2.787477   -1.183149
H      -3.379675    1.233913   -0.352135
H      -2.318733    0.020068    0.580406
