17

C      -0.005017    1.524787    0.088302
C      -0.000393    0.031073   -0.020158
C       1.115500   -0.843515   -0.547404
C       0.521083   -1.932730   -1.419384
N      -0.782526   -2.155302   -0.777797
C      -0.651248   -1.918933    0.671669
C       0.612995   -1.036857    0.869393
C      -1.254941   -0.882591   -0.207517
H       0.990563    1.904531    0.339591
H      -0.310233    1.991982   -0.856104
H      -0.696148    1.868724    0.866361
H       2.098052   -0.420212   -0.719755
H       0.371648   -1.619479   -2.457962
H       1.102376   -2.860511   -1.407793
H      -1.087889   -2.618176    1.372870
H       1.210722   -0.936433    1.764268
H      -2.278911   -0.564997   -0.362947
