19

O       0.050691   -0.047277    0.193966
C       0.008325    1.147871    0.032679
C      -1.319335    1.902236    0.000461
C      -1.395026    3.097024   -0.959540
C      -1.148812    2.703890   -2.418723
O       0.002895    1.889741   -2.601551
C       1.259667    2.481516   -2.365540
O       1.943045    1.849655   -1.325659
C       1.325768    1.956695   -0.051020
H      -2.100892    1.165469   -0.209007
H      -1.492074    2.262570    1.025060
H      -2.385818    3.561310   -0.891787
H      -0.682683    3.871809   -0.654882
H      -1.978800    2.093279   -2.788206
H      -1.092860    3.602744   -3.050164
H       1.887662    2.330130   -3.249115
H       1.143512    3.561998   -2.171064
H       1.176003    3.013413    0.218329
H       2.025408    1.505004    0.655373
