19

C      -0.101576    1.350550   -0.183996
C       0.161207   -0.124680    0.015849
C       1.545095   -0.681804    0.071453
O       2.653122    0.174510    0.130960
C       0.705596   -0.697105    1.342918
C       1.139135    0.189298    2.496853
O       2.383227   -0.223084    3.038017
C       0.184563   -2.040354    1.717565
O      -0.172391   -2.878671    0.921770
H       0.754053    1.959555    0.114833
H      -0.298074    1.550833   -1.243076
H      -0.977229    1.685281    0.380585
H      -0.561612   -0.796254   -0.440499
H       1.729125   -1.651995   -0.386580
H       2.857497    0.482223   -0.758386
H       1.161378    1.242681    2.196201
H       0.412644    0.103591    3.313477
H       3.032339   -0.105912    2.334012
H       0.143355   -2.234356    2.811309
