16

C       0.108547    1.527688    0.132690
C      -0.063270    0.012258   -0.072220
C       0.687221   -0.502549   -1.258128
N       0.099002   -0.782842   -2.420368
N       1.105956   -1.181781   -3.191688
N       2.308860   -1.195316   -2.649191
C       2.077141   -0.760533   -1.399464
C       3.096890   -0.612681   -0.431215
C       3.931780   -0.473042    0.424313
H       1.161524    1.784910    0.280124
H      -0.258532    2.082490   -0.735807
H      -0.449378    1.861283    1.012676
H       0.284167   -0.515234    0.823242
H      -1.121589   -0.231273   -0.202979
H       0.957302   -1.471646   -4.144956
H       4.678273   -0.354494    1.170217
