15

O      -0.057272    1.356334   -0.333044
C      -0.007233   -0.012908   -0.143953
C       0.082816   -0.559427    1.317259
N      -1.327818   -0.025574    1.487469
C      -1.336222   -0.782597    0.159340
C      -0.509018   -1.923588    0.803003
C       0.320598   -2.888287   -0.001707
O       0.443089   -2.874180   -1.201738
H      -0.664976    1.684973    0.346632
H       0.651445   -0.451251   -0.888745
H       0.853294   -0.405723    2.074349
H      -1.826664   -0.558848    2.204770
H      -2.236261   -0.864595   -0.450042
H      -1.025640   -2.462624    1.606148
H       0.840163   -3.659251    0.613621
