15

N       0.022768    1.419746   -0.100151
C       0.035204    0.038959   -0.054446
C      -1.169858   -0.664728   -0.112758
O      -2.346945    0.033819   -0.154975
C      -1.123542   -2.056214   -0.115994
O      -2.324526   -2.698871   -0.166890
N      -0.017531   -2.779172   -0.066936
C       1.138086   -2.099969   -0.008862
C       1.218227   -0.718913    0.000227
H       0.820667    1.884243    0.304065
H      -0.860228    1.844718    0.140304
H      -3.065364   -0.609776   -0.164586
H      -2.122371   -3.643648   -0.153537
H       2.042402   -2.700163    0.032831
H       2.181200   -0.221847    0.044607
