13

N       0.264542    0.143978    0.992429
C       0.043819    0.154183   -0.347048
O       0.582521    0.918875   -1.117150
C      -1.012059   -0.856267   -0.854529
C      -0.936251   -2.223271   -0.272546
N      -0.729088   -3.320665   -0.944019
O      -0.742940   -4.302661   -0.008726
N      -0.962425   -3.740349    1.235990
N      -1.081487   -2.498071    1.079719
H       0.931748    0.799904    1.364505
H      -0.188685   -0.508708    1.611539
H      -1.999741   -0.432414   -0.636300
H      -0.900181   -0.914061   -1.936252
