25

C      -1.197582    0.781778    0.213921
C      -0.354979   -0.491202    0.261296
C       0.574193   -0.663061   -0.977152
C       1.760645   -0.119001   -0.137119
C       0.944342   -0.439833    1.144895
C       1.024680    0.412721    2.396047
C       0.131716   -0.079984    3.522265
C       2.369618    0.982312    2.790224
C       1.272423    1.901057    2.310491
H      -0.598180    1.660910   -0.042796
H      -1.981894    0.685656   -0.545447
H      -1.685063    0.985728    1.172520
H      -1.008070   -1.344331    0.471122
H       0.712478   -1.713448   -1.247964
H       0.300445   -0.106417   -1.877791
H       2.730439   -0.609897   -0.249375
H       1.901958    0.954925   -0.289308
H       1.176748   -1.471959    1.440497
H       0.390057   -1.107211    3.807091
H       0.232661    0.547235    4.413732
H      -0.924563   -0.074992    3.230559
H       2.632667    0.995564    3.842950
H       3.210628    0.815095    2.125479
H       1.392286    2.364978    1.337991
H       0.779504    2.537036    3.038700
