16

C       0.079296    1.529935   -0.204366
C       0.009651    0.042331    0.087536
N       1.290551   -0.701543    0.104709
C       0.513663   -0.605079    1.347681
C       1.179278    0.143680    2.481212
O       2.218901   -0.635602    3.043567
C      -1.117654   -0.628095   -0.530473
N      -2.011351   -1.158515   -1.038835
H       0.993458    1.956011    0.209048
H       0.084953    1.698302   -1.284990
H      -0.784189    2.051013    0.218938
H       1.182314   -1.615953   -0.326749
H      -0.021193   -1.498520    1.663317
H       1.549304    1.118069    2.137053
H       0.457469    0.322551    3.284453
H       2.856624   -0.795539    2.338159
