18

C      -0.230316    1.544523   -0.001808
N       0.140465    0.137056    0.034661
C       1.061117   -0.497811   -0.912414
C       2.569956    0.013373   -0.740526
O       2.626441    1.039194    0.275930
C       2.375291    0.014009    1.263144
C       2.826761   -1.116164    0.296073
C       1.356537   -1.603724    0.153389
C       0.861559   -0.497110    1.141673
H       0.607197    2.244631    0.077524
H      -0.765026    1.736186   -0.939459
H      -0.932343    1.737488    0.817789
H       0.695743   -0.662016   -1.929248
H       3.167623    0.245777   -1.623499
H       2.791818    0.247004    2.244511
H       3.731033   -1.713317    0.384108
H       0.982232   -2.622680    0.117373
H       0.307227   -0.660644    2.069243
