18

C       0.173371    1.452878    0.227768
N       0.182550    0.003254    0.104653
C      -1.036035   -0.789755    0.536457
C      -0.074595   -2.030157    0.474247
O       0.403112   -2.441075   -0.753118
C       0.674437   -0.885486    1.240986
C      -0.636951   -0.668640    2.041024
C      -0.864448    0.537251    2.911457
O      -0.019796    1.024031    3.622080
H       1.205662    1.815610    0.243733
H      -0.317308    1.869569   -0.658192
H      -0.336474    1.857698    1.113229
H      -2.011913   -0.653091    0.067160
H      -0.362697   -2.904369    1.058994
H       0.640370   -1.613049   -1.202321
H       1.703286   -0.848375    1.598292
H      -0.959198   -1.533091    2.643050
H      -1.913493    0.915044    2.923925
