11

F       0.012009    0.043989    0.004589
C      -0.023908    1.368323    0.011055
N      -1.196686    1.949443    0.029343
C      -1.227167    3.288142    0.035911
C      -0.089216    4.081826    0.024414
C       1.142720    3.437707    0.005097
F       2.275083    4.124823   -0.006802
C       1.193624    2.050664   -0.001955
F       2.351683    1.404676   -0.020286
H      -2.212256    3.743423    0.051088
H      -0.138249    5.163153    0.030022
