21

C       0.074873    1.632203    0.080349
C      -0.040621    0.102956   -0.060120
C       0.680690   -0.458115   -1.251059
C       0.102537   -0.806953   -2.457384
N      -1.223337   -0.754600   -2.952628
N       1.093698   -1.282275   -3.279852
C       2.297813   -1.246935   -2.623177
C       2.084136   -0.736481   -1.362836
C       3.126308   -0.536810   -0.303456
H       1.119880    1.942182    0.178584
H      -0.333471    2.138392   -0.800764
H      -0.467629    1.991692    0.961538
H       0.337526   -0.365813    0.857561
H      -1.102313   -0.168909   -0.121409
H      -1.789890   -1.528376   -2.616347
H      -1.688467    0.100658   -2.671645
H       0.933274   -1.562414   -4.231581
H       3.205166   -1.588723   -3.095779
H       3.262144    0.521152   -0.046883
H       2.868627   -1.056291    0.628027
H       4.097115   -0.919569   -0.632912
