15

O      -0.254975    1.299210   -0.036346
C       0.080615   -0.017907   -0.090056
C       0.226743   -0.740572   -1.256001
O       0.087446   -0.416735   -2.566622
N       0.747023   -1.945737   -0.834657
C       0.600263   -3.427842   -0.862557
C       0.799467   -3.409881    0.698299
C       0.763039   -1.902776    0.531552
N       0.368913   -0.758705    1.038504
H      -0.292436    1.534162    0.897784
H      -0.015471    0.540262   -2.620100
H      -0.397871   -3.748141   -1.169669
H       1.360039   -3.927802   -1.466223
H      -0.033770   -3.839799    1.258679
H       1.737025   -3.841617    1.056864
