19

C      -0.086087    1.534882    0.090474
C       0.034634    0.036205   -0.043956
C       0.692331   -0.663169   -1.212428
C       1.630653    0.096302   -2.154708
C       2.977247    0.114442   -1.401769
N       2.566003    0.166232    0.012853
C       1.380764   -0.667321    0.147806
C       1.477487   -1.851048    0.953673
N       1.571499   -2.790563    1.624401
H       0.874373    2.024787   -0.080179
H      -0.819515    1.934367   -0.618229
H      -0.418317    1.797929    1.099491
H      -0.804403   -0.523164    0.362380
H       0.228929   -1.573934   -1.571423
H       1.714587   -0.408110   -3.119556
H       1.273652    1.113370   -2.342655
H       3.553237   -0.793540   -1.643256
H       3.594314    0.983730   -1.649225
H       3.296277   -0.103137    0.659081
