20

C      -0.024016    1.380320    0.059164
N       0.112702   -0.058992    0.129865
C       0.529102   -0.650699   -0.898324
O       0.681711   -1.990505   -0.906949
C       1.161077   -2.552600   -2.129893
C       1.253085   -4.055516   -1.925430
C       1.756025   -4.782841   -3.163419
C       1.875788   -6.291003   -3.057216
O       2.042698   -4.183015   -4.175490
H       0.594824    1.847453    0.833942
H       0.259341    1.811905   -0.915191
H      -1.061992    1.662362    0.270139
H       0.796404   -0.154952   -1.845417
H       0.478574   -2.319202   -2.955517
H       2.144057   -2.139674   -2.385096
H       1.915331   -4.282135   -1.080082
H       0.272724   -4.459462   -1.642248
H       0.900511   -6.734678   -2.827277
H       2.253191   -6.699188   -3.995281
H       2.548717   -6.564251   -2.236789
