22

C      -0.122109    1.275283   -0.539085
O      -0.095354    0.046214    0.167164
C      -1.331104   -0.621157    0.208900
C      -1.722942   -1.415886   -1.015168
C      -1.217147   -2.124893    0.227305
C       0.128831   -2.815199    0.223104
C      -2.399500    0.106066    0.990237
C      -2.894671   -0.407445    2.295361
N      -2.018529    0.769758    2.250362
H       0.904721    1.647632   -0.562867
H      -0.478541    1.138845   -1.569789
H      -0.757871    2.017532   -0.039339
H      -2.774597   -1.491306   -1.272495
H      -1.047868   -1.370176   -1.863823
H      -1.983882   -2.629759    0.808273
H       0.867373   -2.224757   -0.322499
H       0.505155   -2.957012    1.242096
H       0.055502   -3.801936   -0.246681
H      -3.086657    0.700746    0.390478
H      -3.917916   -0.206042    2.601188
H      -2.488104   -1.346069    2.660735
H      -1.062866    0.497192    2.471933
