19

C       0.281995    1.268814    0.259899
N      -0.000451   -0.147360    0.120990
C       0.007806   -0.840323   -1.066042
N       0.345581   -0.176021   -2.260307
C      -0.253343   -2.169031   -0.799628
C      -0.426632   -2.281824    0.605519
C      -0.284883   -1.027310    1.156806
C      -0.384838   -0.589490    2.574946
O       0.848363   -0.094176    3.117761
H       0.769250    1.440858    1.220675
H       0.947837    1.572901   -0.550795
H      -0.630664    1.876442    0.208999
H       0.509797   -0.844568   -3.002253
H      -0.374969    0.468310   -2.572768
H      -0.316740   -2.957491   -1.534131
H      -0.656133   -3.180720    1.158835
H      -1.091249    0.239559    2.702424
H      -0.764587   -1.433501    3.167812
H       1.522683   -0.749092    2.905025
