22

C      -0.036082    1.510535    0.030286
C       0.060666   -0.022136    0.019180
C       0.677307   -0.534957   -1.293015
C       0.717618   -2.053582   -1.408049
O       1.224728   -2.368297   -2.695699
N       0.752194   -0.536664    1.205050
C       2.151585   -0.212677    1.435516
C       0.086797   -1.282304    2.135669
O       0.560263   -1.732548    3.158498
H       0.946091    1.979100   -0.085247
H      -0.663328    1.853523   -0.797811
H      -0.477306    1.863872    0.966577
H      -0.959319   -0.421107    0.086682
H       0.088329   -0.140976   -2.128715
H       1.691754   -0.140306   -1.422196
H       1.350197   -2.477455   -0.614038
H      -0.296822   -2.463375   -1.266450
H       1.308096   -3.324037   -2.760392
H       2.302821    0.868286    1.524723
H       2.443858   -0.691909    2.369860
H       2.786599   -0.586823    0.625303
H      -0.970910   -1.443431    1.847769
