20

C       0.004355    1.521497    0.032387
C      -0.037170   -0.000982   -0.114802
C      -1.443059   -0.578549    0.115930
C      -1.481671   -2.067043    0.006722
C      -1.611025   -2.931757   -1.196234
C      -2.589239   -3.101915   -0.023632
C      -1.842971   -3.730922    1.102338
N      -2.058030   -4.674687    1.898149
O      -0.776231   -2.832870    1.038289
H       1.014804    1.907635   -0.131542
H      -0.660223    2.009593   -0.689467
H      -0.312009    1.831286    1.034542
H       0.309716   -0.289840   -1.114503
H       0.655002   -0.464390    0.597436
H      -1.806214   -0.284657    1.108679
H      -2.145208   -0.160848   -0.616398
H      -2.055620   -2.466253   -2.071096
H      -0.870161   -3.697349   -1.403469
H      -3.660555   -3.011765   -0.126151
H      -1.296596   -4.765711    2.572923
