20

C      -0.124902    1.512806   -0.129010
C       0.022951    0.001480    0.030052
O      -1.287428   -0.611305    0.101323
C      -1.891450   -0.646807    1.312566
C      -3.240727   -1.316154    1.210598
O      -1.403740   -0.202685    2.319834
C       0.755120   -0.636305   -1.134193
C       0.558756   -2.054608   -1.507533
N       0.055524   -0.974119   -2.381552
H       0.862808    1.977531   -0.206207
H      -0.688094    1.753373   -1.035527
H      -0.636138    1.937479    0.737491
H       0.547168   -0.218335    0.965149
H      -3.866620   -0.791947    0.483050
H      -3.123888   -2.344879    0.857634
H      -3.721245   -1.312474    2.187999
H       1.737330   -0.194042   -1.292235
H       1.386156   -2.627913   -1.915506
H      -0.165016   -2.630568   -0.939443
H      -0.946120   -0.879652   -2.225482
