16

O       0.102560   -0.012442    0.035486
C      -0.015920    1.175537   -0.023024
C      -1.193599    2.183569    0.071463
C      -0.089181    3.212983    0.325981
C       0.154301    4.654344   -0.097981
O       1.030093    4.861474    1.043453
C       0.737683    3.565394    1.598898
C       1.766030    2.473957    1.189602
N       0.958874    2.207587   -0.053126
H      -1.749264    2.337787   -0.857723
H      -1.896770    1.978092    0.880407
H       0.664718    4.797858   -1.056408
H      -0.726571    5.306534   -0.041244
H       0.390159    3.615254    2.633824
H       2.767490    2.855358    0.982432
H       1.823013    1.599521    1.844505
