20

C       0.547298    1.417823   -0.072538
O       0.625384    0.015734    0.010618
C      -0.135814   -0.516446    1.075254
C       0.074690   -2.021549    1.068391
C       1.232363   -2.698260    1.782972
C       0.750775   -2.948347    3.229197
C      -0.665775   -2.408493    3.296787
N      -0.887031   -2.887503    1.871810
C       0.315661   -3.838472    2.103183
H       0.921943    1.904188    0.842454
H       1.166429    1.730973   -0.916900
H      -0.485773    1.760916   -0.242534
H       0.178725   -0.060522    2.026714
H      -1.210810   -0.299860    0.941078
H       0.014330   -2.358659    0.029078
H       2.283317   -2.734239    1.525362
H       1.454748   -3.166925    4.022580
H      -1.302327   -2.999459    3.960606
H      -0.853505   -1.344014    3.472263
H       0.323219   -4.902543    1.917608
