19

C       0.135083    1.558416    0.556839
C      -0.068265    0.055711    0.619016
O       1.169832   -0.541696    1.005302
C       1.115936   -1.919490    1.085862
C       2.077342   -2.554222    2.047482
C       0.594578   -2.561712    2.350300
O       0.080350   -1.680766    3.323887
C       0.402032   -1.935193    4.612659
O      -0.028420   -1.288319    5.517957
H       0.917042    1.813097   -0.164218
H      -0.792399    2.053080    0.253775
H       0.429844    1.944283    1.536490
H      -0.847779   -0.206203    1.346036
H      -0.376597   -0.337501   -0.363091
H       0.893046   -2.434611    0.149732
H       2.562810   -3.487887    1.788394
H       2.681454   -1.854886    2.614752
H       0.042832   -3.494837    2.276738
H       1.093790   -2.791403    4.717315
