15

N       0.055344    1.437308    0.164062
C       0.030040    0.034480    0.044025
C      -1.073625   -0.803213    0.008648
N      -0.663632   -2.137667   -0.021223
C       0.703043   -2.159959   -0.014973
C       1.136914   -0.850010    0.029312
O       2.498768   -0.789307    0.031629
C       2.912207   -2.098471   -0.010506
C       1.871192   -2.982213   -0.041179
H       0.825123    1.844730   -0.353038
H      -0.806454    1.861777   -0.155382
H      -2.121843   -0.551149    0.015259
H      -1.282237   -2.926319   -0.046788
H       3.980241   -2.241107   -0.012204
H       1.956798   -4.056682   -0.075322
