14

O      -0.184053    1.419061    0.267851
C      -0.096121    0.040709    0.162053
C      -0.096515   -0.827018    1.499771
N      -1.587865   -0.565603    1.582872
C      -2.175346    0.561447    2.101675
O      -3.003707    1.235585    1.522312
C      -1.414288   -0.810707    0.097244
C      -0.520319   -1.989188    0.572150
O      -0.278117   -3.122169    0.330235
H      -1.104195    1.687033    0.390012
H       0.686513   -0.216916   -0.558908
H       0.559520   -0.784535    2.365226
H      -1.863581    0.744387    3.146335
H      -2.243148   -0.760697   -0.602311
