17

C      -0.033738    1.562203    0.060738
C       1.517002    1.486280   -0.004119
O       2.085766    1.319613    1.290806
C       1.663962    0.122352    1.897390
C       1.837693   -1.142422    1.112258
O       2.218235   -0.926715   -0.227381
C       1.363750    0.090908   -0.694116
C      -0.023314    0.009967    0.023294
C       0.434429   -0.585158    1.348033
H      -0.460726    2.054345    0.936341
H      -0.455773    1.993444   -0.851151
H       2.082018    2.280227   -0.493826
H       1.846553    0.137837    2.965621
H       2.223612   -2.066465    1.524568
H       1.376424    0.112489   -1.783848
H      -0.849661   -0.535653   -0.434047
H      -0.275571   -1.055127    2.017695
