19

C       0.090678    1.433071   -0.106647
C      -0.049600   -0.066356    0.000163
O      -0.438878   -0.669109    0.967444
O       0.331386   -0.663121   -1.153529
C       0.287759   -2.090946   -1.160155
C      -1.041416   -2.800466   -1.528918
C      -0.850935   -2.256980   -2.979514
C       0.562749   -2.742384   -2.531659
C      -0.143750   -4.001734   -1.946199
H      -0.241562    1.896002    0.821658
H       1.133623    1.697828   -0.303200
H      -0.502371    1.807768   -0.945634
H       0.825084   -2.475340   -0.291557
H      -1.953671   -2.828662   -0.934980
H      -1.327440   -2.834711   -3.775346
H      -0.978283   -1.184772   -3.127342
H       1.492672   -2.707196   -3.099551
H       0.374385   -4.539417   -1.147210
H      -0.575235   -4.686990   -2.678154
