18

C       0.123585    1.542798    0.167993
C       0.171195    0.015129    0.098562
C       0.593990   -0.495478   -1.286340
O       1.864941   -0.012891   -1.671888
C       0.599305   -2.031961   -1.345697
C       1.532453   -2.750155   -2.233271
O       1.793014   -2.635286   -0.828626
C      -0.640420   -2.691769   -0.977597
N      -1.650339   -3.181837   -0.702126
H       1.091188    1.974262   -0.100156
H      -0.624536    1.944686   -0.524121
H      -0.138292    1.879085    1.174972
H       0.877210   -0.379070    0.842079
H      -0.808928   -0.406467    0.348948
H      -0.108922   -0.128290   -2.044114
H       2.505513   -0.411519   -1.067678
H       1.278047   -3.750746   -2.573803
H       2.176825   -2.155331   -2.873608
