21

C      -0.063772    1.424913   -0.244410
C      -0.032115   -0.082386   -0.058142
O      -1.362459   -0.556896    0.009746
C      -1.454199   -1.951953    0.183796
C      -2.919295   -2.335956    0.224944
C      -3.723816   -2.148440   -1.099463
C      -4.166585   -3.615027   -0.983372
O      -4.970381   -4.289876   -1.556885
C      -3.228151   -3.866095    0.212025
H       0.953440    1.823612   -0.301106
H      -0.591573    1.686558   -1.165869
H      -0.578886    1.904100    0.592921
H       0.500861   -0.565489   -0.894889
H       0.512523   -0.347869    0.863910
H      -0.949015   -2.479697   -0.646321
H      -0.949485   -2.263056    1.115330
H      -3.402332   -1.827761    1.062903
H      -4.529316   -1.410130   -1.106159
H      -3.090811   -1.970273   -1.975864
H      -2.369845   -4.490107   -0.064075
H      -3.696640   -4.300133    1.098904
