14

N       0.004393    1.310852    0.214808
C      -0.033155   -0.052106    0.032747
N      -1.126480   -0.797717    0.045281
C      -0.618373   -2.047365   -0.096735
O      -1.469957   -3.093047   -0.142177
C      -0.958455   -4.347774    0.038990
N      -1.708384   -5.334014   -0.179567
N       0.689716   -2.152241   -0.211982
N       1.060569   -0.828035   -0.115229
H       0.700481    1.806902   -0.323200
H      -0.912972    1.725394    0.127828
H       0.079129   -4.342706    0.378885
H      -1.207855   -6.196655    0.026697
H       2.035320   -0.582362   -0.107254
