16

C       0.086352    1.578450   -0.536143
C      -0.074724    0.149452   -0.081353
N       1.124057   -0.676171   -0.028454
C       0.438952   -0.367225    1.241135
C       1.152569    0.519118    2.223782
C       0.689153    0.384521    3.664341
O       2.016621    1.300311    1.896640
H       1.017480    1.997208   -0.153592
H       0.106202    1.619437   -1.630480
H      -0.752697    2.192124   -0.191117
H      -0.995741   -0.333701   -0.409380
H       0.921843   -1.635985   -0.295508
H      -0.159373   -1.153797    1.697383
H       0.898256   -0.626221    4.034828
H       1.202864    1.115763    4.288888
H      -0.395121    0.529586    3.735380
