17

O       0.075002    1.312916   -0.036847
C       0.081016   -0.038486   -0.067917
C       0.048417   -0.834189   -1.191607
N       0.104283   -2.118801   -0.675943
C       0.001962   -3.476918   -1.176411
C       0.384650   -4.305974    0.081145
C       0.108495   -3.381421    1.302502
C       0.140995   -2.024825    0.672010
N       0.134167   -0.771572    1.088173
H       0.105160    1.555611    0.896511
H       0.022866   -0.611362   -2.242745
H      -1.019299   -3.687642   -1.518873
H       0.681135   -3.649256   -2.016535
H      -0.167273   -5.246481    0.128643
H       1.449725   -4.549175    0.040044
H      -0.873266   -3.583047    1.749270
H       0.851384   -3.503524    2.094818
