21

C      -0.143450    1.495936    0.083694
C       0.142668   -0.002125    0.037270
C       1.007914   -0.459172   -1.152626
C       1.512375   -1.844992   -0.723286
N       1.562248   -1.749760    0.735034
C       0.936417   -0.530138    1.243275
C       2.274524   -2.559726    1.575827
N       2.878082   -3.659763    0.965126
O       2.408807   -2.320093    2.765064
H       0.788176    2.071958    0.120586
H      -0.702940    1.819112   -0.800103
H      -0.734716    1.761401    0.966207
H      -0.810371   -0.546568   -0.006533
H       0.463406   -0.484696   -2.099972
H       1.856682    0.224594   -1.272847
H       0.815015   -2.632700   -1.050529
H       2.498088   -2.082116   -1.137590
H       1.696998    0.195051    1.566584
H       0.311505   -0.749521    2.112831
H       2.402864   -4.085083    0.183115
H       3.206362   -4.324770    1.649558
