19

C       0.015215    1.380932   -0.215400
O      -0.017954    0.018299    0.171749
C      -1.292972   -0.576326    0.102511
C      -1.738141   -0.681956   -1.308410
N      -2.068120   -0.749152   -2.414039
C      -1.230233   -1.960366    0.782409
C      -0.772383   -1.805694    2.237636
C      -2.577405   -2.687003    0.690072
H       1.043967    1.719880   -0.080385
H      -0.271755    1.511290   -1.267258
H      -0.650821    1.991342    0.412269
H      -2.036345    0.047433    0.629661
H      -0.475589   -2.537962    0.234764
H      -1.507824   -1.237418    2.820030
H      -0.667062   -2.788433    2.706726
H       0.185830   -1.287132    2.298104
H      -2.896183   -2.830427   -0.345903
H      -2.504573   -3.672146    1.159578
H      -3.363078   -2.129397    1.213592
