17

C      -0.108913    1.524874   -0.002499
C       0.117381    0.041577   -0.014425
O      -0.707008   -0.750446    0.871820
C       0.711503   -0.771106    1.062756
C       1.403132   -1.979513    0.446771
C       1.101652   -1.830697   -1.025716
C       0.417159   -0.705522   -1.299010
C      -0.009579   -0.247080   -2.566440
C      -0.386909    0.188821   -3.625044
H       0.753130    2.052693   -0.422837
H      -0.984431    1.784036   -0.606190
H      -0.276244    1.873893    1.018999
H       1.063294   -0.345845    1.999325
H       2.483300   -1.965108    0.644089
H       1.018761   -2.922403    0.855225
H       1.384601   -2.572106   -1.763217
H      -0.718537    0.556649   -4.564279
