23

C      -0.151295    1.527526   -0.006551
C      -0.112226   -0.006322    0.017532
C       0.953850   -0.500687    1.005641
C      -1.513728   -0.572045    0.326355
C      -1.625788   -2.073097    0.161089
C      -2.927089   -2.845428   -0.002365
C      -3.870443   -2.106141   -0.944878
O      -2.825490   -1.956676   -1.943593
C      -1.935747   -2.744566   -1.143296
H       0.828795    1.946440   -0.258116
H      -0.873676    1.896472   -0.742078
H      -0.439871    1.927576    0.973325
H       0.166707   -0.353620   -0.987063
H       1.056007   -1.590077    0.995610
H       1.935511   -0.078924    0.765380
H       0.706317   -0.197793    2.030649
H      -1.797552   -0.291977    1.350733
H      -2.232527   -0.089855   -0.343385
H      -0.919532   -2.655657    0.749915
H      -3.196958   -3.684601    0.624762
H      -4.675938   -2.740421   -1.331946
H      -4.283523   -1.143619   -0.620922
H      -1.319041   -3.475801   -1.654319
