18

C      -0.009951    1.391796    0.083654
C       0.023341   -0.123880    0.035307
O       0.675793   -0.498677   -1.184587
C       0.817671   -1.804656   -1.438684
C       1.388890   -2.427666   -2.504727
C       1.252690   -3.831991   -2.236260
C       0.619784   -3.969248   -1.046163
N       0.231933   -5.083364   -0.307048
O       0.341851   -2.693081   -0.537174
H       1.003393    1.802137    0.063993
H      -0.561276    1.794385   -0.770509
H      -0.501696    1.724149    1.002578
H       0.573351   -0.539490    0.888175
H      -0.988094   -0.547230    0.055430
H       1.840578   -1.948866   -3.356896
H       1.586410   -4.650060   -2.855017
H       0.676471   -5.125426    0.604894
H      -0.772633   -5.133689   -0.167986
