18

O      -0.111169    1.200937    0.473117
N      -0.000159   -0.179029    0.227674
C      -1.129481   -0.700291   -0.036096
C      -1.259803   -2.175314   -0.355616
C      -2.671785   -2.545395    0.125367
C      -2.851731   -2.710405    1.647953
O      -3.483230   -1.418471    1.767487
C      -3.436966   -1.202977    0.338802
C      -2.498346   -0.055887   -0.038896
H       0.791204    1.436245    0.713354
H      -1.187192   -2.319111   -1.441929
H      -0.464933   -2.769050    0.102373
H      -3.150974   -3.308814   -0.487094
H      -3.525056   -3.521971    1.951433
H      -1.928422   -2.773168    2.237704
H      -4.442916   -1.106390   -0.082860
H      -2.563653    0.780114    0.659779
H      -2.734053    0.326460   -1.041329
