16

C      -0.172206    1.539907    0.026755
C       0.107017    0.075130    0.017767
O      -0.750483   -0.825584    0.719201
C       0.650639   -0.863555    1.001721
C       1.377134   -1.674941   -0.155103
C       2.665270   -2.418792   -0.050172
O       0.367861   -2.108190   -1.067418
C       0.812500   -0.751290   -1.141448
H       0.708732    2.104586   -0.296812
H      -0.995376    1.782818   -0.654790
H      -0.449577    1.870458    1.031159
H       0.975569   -0.728706    2.027251
H       2.534505   -3.343407    0.523506
H       3.037559   -2.681416   -1.043879
H       3.422656   -1.812840    0.458549
H       1.192755   -0.382208   -2.087313
