20

C      -0.043657    1.551453    0.178763
C       0.000664    0.055976    0.042641
N       0.174684   -0.766542    1.004667
O       0.365279   -0.105847    2.228277
C      -0.145316   -0.576118   -1.323507
O      -1.341221   -0.056684   -1.902020
C       1.053140   -0.294171   -2.209815
C       2.259494   -1.189664   -2.148997
C       1.355641   -1.236909   -3.355104
H      -0.619573    1.831181    1.064007
H       0.965032    1.958614    0.314948
H      -0.494796    1.998517   -0.707673
H       0.427767   -0.841667    2.846224
H      -0.221968   -1.662828   -1.171730
H      -1.311951   -0.266016   -2.841730
H       1.232249    0.761915   -2.392437
H       3.238912   -0.737416   -2.255279
H       2.227340   -2.024900   -1.457575
H       0.722518   -2.110993   -3.474744
H       1.714569   -0.816236   -4.287749
