21

C      -0.012170    1.516613    0.234070
C       1.521928    1.516547   -0.087865
C       1.297750    0.202725   -0.861141
C       2.060857   -1.108378   -0.940180
O       1.124516   -1.934473   -1.680081
C       0.076479   -1.072237   -2.185596
C      -0.945947   -0.783738   -1.055168
C      -0.026924   -0.012650   -0.076390
C       0.783213    0.277033   -2.318196
H      -0.308223    1.820273    1.240536
H      -0.586063    2.105285   -0.486414
H       1.934378    2.366256   -0.637745
H       2.115214    1.365972    0.819235
H       3.016277   -1.051967   -1.481699
H       2.238939   -1.564380    0.040814
H      -0.330475   -1.538205   -3.084344
H      -1.790078   -0.192996   -1.429852
H      -1.341458   -1.707090   -0.625292
H       0.144320   -0.573196    0.847069
H       0.103341    1.108541   -2.514460
H       1.587278    0.279671   -3.059259
