14

C      -0.011778    1.542468    0.063620
C       0.010015    0.004765    0.001450
O       0.691988   -0.428562    1.169837
C      -1.386455   -0.513766    0.013364
N      -2.465728   -0.924410    0.047176
C       0.674903   -0.469643   -1.219371
C       1.250864   -0.867113   -2.205780
C       1.895105   -1.312298   -3.317818
C       2.468199   -1.708210   -4.303430
H       1.018058    1.903788    0.055769
H      -0.551167    1.953367   -0.791120
H      -0.499839    1.853175    0.989649
H       0.793234   -1.387106    1.126015
H       2.969896   -2.055504   -5.172974
