16

C      -0.652156    1.393851   -0.021543
C      -0.001000    0.028713   -0.021094
O       1.240286   -0.002499   -0.793427
C       1.996783   -0.566131    0.292893
C       3.180919    0.218758    0.642635
N       4.106745    0.836709    0.953259
C       0.771829   -0.434879    1.214878
C       0.676997   -0.089960    2.628369
O       0.360507   -1.407611    2.130915
H       0.029126    2.152716    0.372778
H      -0.932504    1.674954   -1.040921
H      -1.561822    1.379735    0.588100
H      -0.691218   -0.744022   -0.383892
H       2.286698   -1.607835    0.104868
H       1.583542   -0.023111    3.226470
H      -0.173144    0.486024    2.987983
