15

C      -0.124117    1.540439    0.029140
C       0.093064    0.038562    0.049306
O       1.190084   -0.470636    0.170395
N      -1.052448   -0.716053   -0.059823
C      -1.075562   -2.110027   -0.028328
C      -0.056194   -3.008079    0.099172
O      -0.557038   -4.257863    0.076818
N      -1.930415   -4.208181   -0.067339
C      -2.230987   -2.934708   -0.129280
H       0.642561    1.994679   -0.601293
H      -1.112066    1.836424   -0.333068
H       0.007801    1.932287    1.042574
H      -1.936034   -0.244046   -0.157749
H       1.007000   -2.900538    0.206662
H      -3.264611   -2.638279   -0.244096
