17

O      -0.409122    0.285911    0.194366
C       0.018561    1.321113   -0.240367
C       1.453167    1.809985   -0.025741
O       1.809186    2.720827   -1.059413
C       2.122282    3.986864   -0.497349
C       3.226691    4.784966   -1.139839
C       1.780990    5.212225   -1.301741
C       1.925893    3.852742    0.960148
C       1.556757    2.608813    1.253340
H      -0.603218    2.038779   -0.821509
H       2.116894    0.933010   -0.033498
H       3.881671    5.373387   -0.506196
H       3.708102    4.325383   -1.995654
H       1.314245    5.035614   -2.264343
H       1.431749    6.096098   -0.778722
H       2.089018    4.666053    1.655016
H       1.339480    2.187326    2.224806
