22

C      -0.011060    1.570130   -0.112973
C       0.010402    0.042542   -0.053634
O       0.788845   -0.503468   -1.116368
C       0.627001   -0.477343    1.246457
C       0.575565   -2.005264    1.351698
C       1.354118   -2.568979    2.564042
C       0.789365   -2.124655    3.928216
C       1.388778   -4.034487    2.491940
N       1.401736   -5.189069    2.436485
H       1.005303    1.969371   -0.036380
H      -0.442105    1.916694   -1.059126
H      -0.614616    1.989307    0.698859
H      -1.026219   -0.330697   -0.120252
H       0.395032   -0.228629   -1.949973
H       1.670217   -0.136060    1.286205
H       0.102745   -0.010209    2.087230
H      -0.466821   -2.342289    1.414301
H       0.990255   -2.431405    0.434649
H       2.395108   -2.226414    2.490552
H       1.350784   -2.576851    4.749351
H       0.852406   -1.038812    4.029560
H      -0.258739   -2.422365    4.027451
