17

C       0.026381    1.594657    0.002548
O       1.416091    2.024376    0.059044
C       1.985833    0.958813    0.722607
N       2.405084    1.067645    1.909808
C       2.234438   -0.196005    2.635411
C       0.732640   -0.548427    2.454694
N       0.479949   -0.865728    1.033797
C       0.043407    0.054855   -0.056158
C       1.464983   -0.320787    0.109099
H      -0.502206    1.995819    0.876247
H      -0.416582    2.002732   -0.908894
H       2.846419   -1.025687    2.255098
H       2.486556   -0.046027    3.687740
H       0.463694   -1.432529    3.042003
H       0.126825    0.294044    2.810243
H      -0.628781   -0.422410   -0.761636
H       2.062209   -0.978138   -0.514282
