14

C       0.272399    1.308178    0.220083
C       0.011888   -0.179491    0.059565
C       0.714427   -0.952757   -1.038761
N       1.064028   -1.152550    0.341618
C       2.308197   -0.850693    0.887267
O       3.356988   -1.045644    0.329444
C      -1.324826   -0.601585    0.443224
N      -2.399670   -0.905249    0.739160
H       1.285585    1.552941   -0.109216
H      -0.438689    1.880032   -0.382114
H       0.156391    1.617106    1.262523
H       0.199146   -1.774466   -1.526077
H       1.415189   -0.397352   -1.657209
H       2.221203   -0.477948    1.923859
