20

C       0.075651    1.527828    0.021840
C       0.084285    0.003323   -0.009903
O       1.150261   -0.597359   -0.048969
C      -1.215450   -0.681724    0.012252
C      -1.199491   -2.040391   -0.019572
N      -2.305289   -2.824753   -0.004594
C      -3.622808   -2.246717    0.212172
C      -3.683295   -0.861935   -0.441233
C      -2.544510    0.045263    0.059246
H       1.103475    1.884103    0.097270
H      -0.377270    1.933424   -0.890536
H      -0.510195    1.909397    0.865512
H      -0.243205   -2.549956   -0.077210
H      -2.191735   -3.818211    0.096191
H      -4.375787   -2.913317   -0.220082
H      -3.838101   -2.161791    1.288691
H      -3.598833   -0.985517   -1.526806
H      -4.658337   -0.408508   -0.238975
H      -2.771343    0.391471    1.078477
H      -2.517950    0.949356   -0.558916
