20

C      -0.010909    1.424078   -0.074040
C       0.150090   -0.085013    0.165724
C       0.751052   -0.365313    1.470475
C       1.254232   -0.592933    2.537684
N      -1.177256   -0.711784    0.098096
C      -1.766745   -1.164182   -1.145179
C      -0.753825   -1.814174   -2.108918
C      -0.341922   -2.803802   -0.973654
C      -1.376597   -2.133464   -0.048070
H       0.958241    1.926822   -0.024672
H      -0.445746    1.596860   -1.063116
H      -0.674836    1.854498    0.678961
H       0.835353   -0.476370   -0.602235
H       1.697404   -0.794625    3.481345
H      -2.740130   -0.772073   -1.420475
H      -1.253311   -2.325129   -2.934784
H       0.020424   -1.163698   -2.527787
H      -0.606013   -3.835961   -1.211944
H       0.696255   -2.781697   -0.629965
H      -1.990227   -2.640129    0.688855
