18

C      -0.301021    1.403822    0.069175
N       0.003508   -0.018142    0.112318
C       1.358813   -0.423574   -0.252289
C       0.887303   -0.551640    1.149573
C       1.452623    0.286283    2.293025
O       0.828079   -0.215310    3.484402
C       0.271227   -1.445407    3.278036
O      -0.264559   -2.054074    4.155594
C       0.467169   -1.844405    1.820313
H       0.560376    2.060285    0.272944
H      -0.674446    1.647077   -0.929987
H      -1.090048    1.632130    0.792550
H       1.447434   -1.302081   -0.887018
H       2.083873    0.363441   -0.465673
H       2.538240    0.163918    2.388106
H       1.228589    1.352109    2.218832
H      -0.448020   -2.265643    1.403656
H       1.249874   -2.610991    1.776966
