17

O       0.102175    1.342416   -0.274557
C       0.053695    0.016554    0.232964
C      -1.350744   -0.503115    0.295441
C      -2.428472   -0.167085    1.336303
C      -2.979582   -1.628316    1.160883
O      -4.279472   -1.790907    0.634167
C      -1.892873   -1.896857    0.118452
N      -1.972048   -0.919566   -0.962472
H      -0.279531    1.307377   -1.159068
H       0.662593   -0.669919   -0.373799
H       0.491056    0.060784    1.236084
H      -2.035814    0.016021    2.339882
H      -3.113550    0.642102    1.064050
H      -2.836088   -2.224785    2.071444
H      -4.912856   -1.484611    1.291183
H      -1.390989   -2.839339   -0.068366
H      -2.923885   -0.573821   -1.072722
