21

O      -0.311116    0.330195    0.606224
C      -0.014339    1.224391   -0.140210
C       1.363929    1.860697   -0.188832
O       1.351771    2.860955   -1.170909
C       2.589702    3.535045   -1.313226
C       2.447623    4.591412   -2.386174
C       1.566175    5.839523   -2.101150
C       2.636685    6.710342   -2.813277
C       3.649455    5.545896   -2.634383
H      -0.732214    1.666136   -0.866139
H       1.603630    2.261121    0.811549
H       2.108867    1.074866   -0.403581
H       2.878706    4.000761   -0.354729
H       3.385361    2.816660   -1.577544
H       2.136867    4.109827   -3.319296
H       0.550267    5.844928   -2.501059
H       1.516654    6.052709   -1.028130
H       2.391888    6.874224   -3.866501
H       2.889727    7.673455   -2.364481
H       4.252541    5.672240   -1.728684
H       4.319641    5.313891   -3.465453
