20

N       0.121393    1.398824   -0.155111
C      -0.009796    0.037276   -0.013809
C      -1.195645   -0.631042    0.113470
C      -1.273161   -2.145556    0.109300
C       0.010681   -2.815726   -0.385255
C       1.230259   -2.170806    0.276708
C       1.313845   -0.691270   -0.108231
C      -2.458794    0.063420    0.286121
O      -3.543702   -0.483747    0.374869
H       1.000538    1.804796    0.122694
H      -0.677704    1.989422    0.005629
H      -1.507283   -2.499897    1.123385
H      -2.132319   -2.446124   -0.499197
H      -0.020845   -3.890118   -0.176827
H       0.092807   -2.706614   -1.474922
H       1.144729   -2.263879    1.366766
H       2.157129   -2.676647   -0.012896
H       1.680004   -0.588824   -1.139479
H       2.049052   -0.169684    0.520393
H      -2.410151    1.175913    0.362258
