17

O      -0.145864    0.019584    0.519604
C      -0.116081    1.150075    0.090938
C      -1.271588    1.959088   -0.528355
C      -0.974661    3.404252   -0.068461
C       0.567952    3.421550    0.023945
C       1.319602    3.703011    1.360427
C       1.824777    2.229387    1.309575
N       0.970177    2.002977    0.121718
H      -1.239997    1.870123   -1.620233
H      -2.227668    1.561041   -0.187218
H      -1.369032    4.165339   -0.745136
H      -1.413678    3.579477    0.919933
H       1.019343    3.923976   -0.839378
H       2.089551    4.475252    1.324116
H       0.648293    3.905269    2.198634
H       2.890532    2.118950    1.091345
H       1.562341    1.578921    2.148052
