16

C       0.137574    1.469308    0.237604
O       1.489044    1.349625   -0.306421
C       1.109439    0.148607   -1.053838
C       1.507098   -1.241743   -0.571247
C       0.809564   -1.017658    0.789736
C      -0.199912   -2.138331    0.461885
C      -0.886549   -1.221689   -0.474688
N       0.273289   -2.113204   -0.957284
C      -0.064930   -0.004070   -0.077180
H       0.138904    1.779836    1.286968
H      -0.467242    2.163945   -0.361080
H       1.002288    0.350581   -2.123477
H       2.440011   -1.769096   -0.767430
H       1.259375   -0.744333    1.739462
H      -0.519777   -3.043114    0.965597
H      -1.817368   -1.319057   -1.018236
