21

C      -0.477569    1.148188   -0.151497
O       0.463880    0.120063    0.109851
C       0.953965   -0.473474   -1.045462
C       1.372143   -1.918244   -0.928407
C       1.242271   -2.630521    0.401897
O       1.447389   -4.034178    0.284652
C       0.136396   -1.530763   -1.742342
O      -1.137421   -1.760278   -1.231684
C      -1.689389   -2.997737   -1.627193
H      -0.034045    1.950809   -0.760242
H      -1.362205    0.755835   -0.665979
H      -0.771094    1.561604    0.816149
H       1.550463    0.191298   -1.674351
H       2.251537   -2.212365   -1.495193
H       2.022967   -2.280985    1.084502
H       0.276141   -2.393944    0.861171
H       0.771405   -4.381365   -0.305471
H       0.201559   -1.598381   -2.829881
H      -2.696001   -3.051930   -1.206863
H      -1.751707   -3.082407   -2.722313
H      -1.103314   -3.849978   -1.251316
