16

N       0.103060    1.201897    0.626480
C      -0.028794    0.036293    0.162228
C      -1.351934   -0.645428    0.010883
C      -1.546520   -1.938264    0.814426
O      -2.674260   -2.366206    0.953665
C      -0.424245   -2.676788    1.447167
C       0.900847   -2.493594    1.390967
C       1.715872   -1.491087    0.635427
O       1.017193   -0.728883   -0.331512
H       1.086548    1.483093    0.609537
H      -2.163517    0.032377    0.277700
H      -1.477943   -0.920815   -1.044210
H      -0.800902   -3.495999    2.053779
H       1.519699   -3.165175    1.985843
H       2.220793   -0.829849    1.360931
H       2.508931   -2.011786    0.086558
