20

C      -0.515514    1.141661    0.297031
N      -0.056484   -0.232693    0.176416
C       0.682909   -0.737488    1.061919
O       1.136648   -0.142917    2.195830
C       1.784265   -1.139204    3.025341
C       1.287985   -2.505027    2.516182
C      -0.036999   -2.933240    3.151597
C       1.144621   -2.180504    1.013253
O       0.264741   -2.993710    0.291509
H       0.030781    1.775193   -0.411987
H      -1.573440    1.190786    0.020532
H      -0.387925    1.560402    1.301797
H       2.869421   -1.025272    2.918894
H       1.507527   -0.931772    4.061552
H       2.048045   -3.272558    2.685436
H      -0.795026   -2.147990    3.060148
H      -0.425487   -3.825031    2.656158
H       0.097825   -3.150501    4.215675
H       2.149909   -2.199540    0.555759
H      -0.267339   -2.377205   -0.237000
