18

O       0.612884    0.768418   -0.930109
C       0.113760   -0.256675   -0.109964
C       0.172786   -0.093200    1.434895
C      -1.284775   -0.629850    1.545765
C      -2.310455    0.321908    2.193916
C      -2.731219    1.201698    1.037806
C      -2.268079    0.768594   -0.137256
C      -1.431038   -0.475968   -0.008490
H       0.153144    1.579832   -0.685434
H       0.618621   -1.169245   -0.439144
H       0.954343   -0.650111    1.957040
H       0.247358    0.959547    1.727907
H      -1.340733   -1.651021    1.924351
H      -3.174816   -0.210572    2.614427
H      -1.871935    0.895041    3.021563
H      -3.364917    2.072629    1.171646
H      -2.476593    1.234057   -1.095142
H      -1.825837   -1.309501   -0.598973
