14

N      -0.128384   -1.074861    0.254024
C      -0.048563    0.063295    0.077815
C       0.059157    1.500897   -0.176400
N       1.427797    1.950545    0.046103
C       1.702819    3.294238    0.029746
C       2.869905    4.004364   -0.063171
C       2.426039    5.344110    0.053866
N       1.129469    5.456919    0.198146
O       0.659486    4.119639    0.178201
H      -0.304525    1.706036   -1.194816
H      -0.602964    2.037044    0.509569
H       2.144790    1.366785   -0.357173
H       3.871941    3.631319   -0.184166
H       3.021693    6.246792    0.037591
