17

C       0.095354    1.450399   -0.347127
C       1.402279    1.999924    0.286471
C       2.133557    0.741530    0.687461
C       3.457030    0.517210    1.049487
N       3.923130   -0.690171    1.385015
N       3.104744   -1.738652    1.387161
C       1.819655   -1.580522    1.053780
C       1.279970   -0.352049    0.689699
C      -0.119123    0.050770    0.290460
H      -0.757429    2.116336   -0.199741
H       0.238570    1.336403   -1.426378
H       1.974434    2.633827   -0.397002
H       1.188341    2.607817    1.175591
H       4.193430    1.316374    1.071801
H       1.223265   -2.488871    1.079590
H      -0.759005    0.112963    1.180696
H      -0.596482   -0.659918   -0.390261
