17

O       0.060657    1.282820   -0.326033
C       0.089851   -0.025722    0.215046
C      -1.279702   -0.678302    0.176013
C      -1.921961   -1.222317   -1.120518
C      -0.943935   -2.052321   -1.882748
O      -0.652952   -2.127132   -3.044774
C      -0.595886   -2.944293   -0.662186
C      -1.596077   -2.120703    0.148390
O      -2.431771   -2.774116    1.018558
H      -0.190017    1.207302   -1.253526
H       0.834310   -0.654789   -0.293023
H       0.416643    0.088533    1.254469
H      -2.022285   -0.097595    0.727157
H      -2.841243   -0.792365   -1.500147
H      -0.975640   -3.955280   -0.838878
H       0.439784   -3.003091   -0.317424
H      -2.850770   -2.132679    1.601851
