23

C      -0.090718    1.350160    0.025544
O       0.147221   -0.041962    0.022716
C       0.719788   -0.539989   -1.142899
C      -0.012131   -0.548380   -2.527163
C       0.982442   -1.714615   -2.792247
C       2.336384   -0.973310   -2.804140
C       2.141117   -0.071168   -1.545060
C       0.795788   -2.086169   -1.286409
C       1.802234   -2.921714   -0.510808
H       0.840860    1.932577   -0.007784
H      -0.722487    1.656853   -0.820858
H      -0.613778    1.582565    0.956228
H      -1.048654   -0.881025   -2.441540
H       0.059952    0.337098   -3.165568
H       0.802387   -2.444317   -3.581143
H       3.190074   -1.650112   -2.711809
H       2.473627   -0.391079   -3.719890
H       2.174088    0.994644   -1.786128
H       2.873621   -0.258701   -0.755550
H      -0.210486   -2.490715   -1.136057
H       2.832203   -2.577278   -0.638009
H       1.574307   -2.895078    0.560076
H       1.763448   -3.968772   -0.830964
