20

C       0.033653    1.587271    0.047838
C       0.000180    0.056833    0.004476
C       0.714092   -0.518445   -1.223422
C       0.657950   -2.050159   -1.322763
C       1.457618   -2.616988   -2.518963
O       2.727299   -2.999898   -1.979055
C       2.627355   -3.119378   -0.618391
O       3.522384   -3.498825    0.083134
N       1.351755   -2.747283   -0.250334
H       1.063709    1.958615    0.074997
H      -0.450110    2.018087   -0.835578
H      -0.483088    1.971516    0.932266
H       0.461957   -0.336074    0.919764
H      -1.042013   -0.289692    0.013036
H       0.256343   -0.105544   -2.132789
H       1.765290   -0.200629   -1.229001
H      -0.388597   -2.372661   -1.375295
H       0.972307   -3.500960   -2.947237
H       1.622968   -1.879307   -3.307369
H       1.193261   -2.538911    0.721528
