23

C      -0.134018    1.556985    0.101386
C       0.043494    0.036673    0.019502
C       0.752248   -0.464977   -1.247958
C       2.231061   -0.069340   -1.288768
O       2.843963   -0.391633   -2.528683
C       2.662072   -1.701228   -2.982168
C       2.981939   -2.908864   -2.144787
C       1.534701   -2.563441   -2.475426
C       0.628222   -1.995257   -1.385302
H       0.824634    2.084005    0.134564
H      -0.689742    1.935956   -0.763404
H      -0.690237    1.836723    1.001519
H       0.592305   -0.319700    0.902563
H      -0.943795   -0.440374    0.071369
H       0.278536   -0.001295   -2.124885
H       2.360104    1.010963   -1.186077
H       2.767788   -0.544565   -0.449317
H       2.909966   -1.741289   -4.037693
H       3.443574   -3.761455   -2.631097
H       3.300100   -2.757183   -1.118315
H       1.044528   -3.196960   -3.207823
H       0.858728   -2.461267   -0.417780
H      -0.414164   -2.251347   -1.602823
