19

C       0.058425    1.504453    0.196361
C       0.106160   -0.012703    0.017522
C       0.585254   -0.449732   -1.389464
C       1.963798   -0.039623   -1.648762
N       3.067387    0.242250   -1.852158
C       0.341927   -1.971129   -1.587729
O      -0.768506   -2.420001   -1.372383
N       1.400623   -2.705150   -2.002345
C       1.309306   -4.135029   -2.235467
H       1.046607    1.957830    0.068606
H      -0.620532    1.967403   -0.528090
H      -0.299081    1.759225    1.198043
H       0.763519   -0.464579    0.768619
H      -0.883918   -0.456126    0.146766
H      -0.053373    0.042091   -2.134556
H       2.285491   -2.243755   -2.145656
H       0.278689   -4.434950   -2.045086
H       1.571853   -4.380431   -3.269661
H       1.974561   -4.687024   -1.563110
