23

C       0.184727    1.540534   -0.152061
C       0.021982    0.036674    0.073524
O       0.562347   -0.670901   -1.041466
C       1.450286   -1.697644   -0.601854
C       2.766957   -1.594905   -1.373080
C       1.558595   -1.507862    0.895237
C       2.442983   -2.385811    1.722102
C       0.745594   -0.520667    1.279671
C       0.474087    0.005255    2.653109
H       1.244527    1.811528   -0.183483
H      -0.273287    1.824320   -1.103745
H      -0.303120    2.111979    0.644472
H      -1.059187   -0.183992    0.151833
H       0.999404   -2.683626   -0.821616
H       3.274126   -0.652860   -1.143013
H       3.434260   -2.426260   -1.122951
H       2.570280   -1.628306   -2.448354
H       3.498386   -2.263657    1.449403
H       2.350308   -2.176481    2.790481
H       2.200983   -3.445175    1.565618
H       1.011733   -0.553323    3.423028
H       0.763111    1.059485    2.743891
H      -0.597118   -0.045843    2.888051
