19

C       0.138546    1.498163   -0.114981
C      -0.098269   -0.002022   -0.177211
O       0.753042   -0.544926   -1.167829
C       0.770297   -1.967440   -1.272877
C      -0.500078   -2.519719   -1.922901
C       2.022508   -2.268029   -2.101324
O       1.974206   -1.631934   -3.364078
H       1.180869    1.713129    0.137009
H      -0.083098    1.961685   -1.080737
H      -0.505116    1.954496    0.642956
H       0.118159   -0.468487    0.798224
H      -1.154405   -0.208637   -0.407565
H       0.897645   -2.405477   -0.268521
H      -0.582426   -2.150834   -2.948163
H      -0.461355   -3.613492   -1.951750
H      -1.398383   -2.235003   -1.368815
H       2.907390   -1.951116   -1.528060
H       2.103873   -3.344306   -2.285474
H       1.769262   -0.707673   -3.177407
