19

C       0.074729    1.599292    0.104184
C       0.166636    0.094074   -0.002947
C       1.459609   -0.691783   -0.187679
C       2.547368   -0.097069    0.709482
O       1.671257   -0.145838    1.862832
C       0.645680   -0.808921    1.094000
C      -0.109475   -1.904213    1.771873
C       3.722394   -1.038756    0.890351
O       4.758993   -0.936327    0.289351
H       0.790224    1.984577    0.834010
H       0.266429    2.080615   -0.860378
H      -0.925191    1.898538    0.435109
H      -0.633427   -0.369921   -0.578412
H       1.628507   -1.387018   -0.999467
H       2.907787    0.911599    0.480464
H      -0.704884   -1.501945    2.599358
H      -0.793192   -2.387667    1.068474
H       0.568723   -2.660695    2.178683
H       3.530707   -1.854356    1.623348
