16

O       0.028565    0.144888   -0.780282
C      -0.032761    1.222151   -0.260674
C      -1.169311    2.150772    0.246322
O      -1.347984    2.024431    1.673196
C      -0.499835    3.172735    1.934413
C      -0.102129    3.281812    0.453767
C       0.996304    2.293810    0.036609
C       2.388527    2.076749    0.516031
N       2.139763    2.589211   -0.830580
H      -2.105967    2.218792   -0.312040
H      -1.091641    4.015783    2.309907
H       0.302439    2.943584    2.644567
H      -0.119275    4.245710   -0.048795
H       2.822728    2.795747    1.205389
H       2.716856    1.048152    0.641649
H       2.231378    1.838831   -1.515115
