18

O       0.123553    1.341227    0.207225
C       0.101868   -0.056338    0.008521
C      -1.318141   -0.573415   -0.081443
C      -2.068856   -0.963305    1.176848
C      -1.658544   -2.016791    0.178423
C      -2.670710   -2.636573   -0.756258
O      -3.548391   -1.675622   -1.374807
C      -3.058667   -0.439478   -1.618023
N      -2.058797    0.131958   -1.093435
H      -0.520530    1.696021   -0.420215
H       0.645692   -0.337972   -0.909120
H       0.620804   -0.517170    0.856218
H      -1.531481   -0.916615    2.117778
H      -3.116536   -0.687448    1.238136
H      -0.853439   -2.691256    0.458834
H      -2.149555   -3.175531   -1.557988
H      -3.332853   -3.342154   -0.245621
H      -3.675547    0.073858   -2.352603
