18

C      -0.048626    1.563160    0.130126
C       1.527498    1.523332   -0.135004
C       1.227491    0.142895   -0.778094
C      -0.041466   -0.006451   -0.020977
N      -0.311535   -0.980740   -1.218420
C       0.391510    0.068243   -2.121581
C       1.148494   -0.735169   -3.145602
C       1.667336   -1.739038   -2.433288
C       1.199243   -1.435204   -1.034723
H      -0.356647    1.926129    1.112929
H      -0.591752    2.120797   -0.633524
H       1.968982    2.304290   -0.760088
H       2.079074    1.454546    0.806845
H      -0.046588   -0.531947    0.936437
H      -0.234215    0.896364   -2.451601
H       1.216433   -0.524681   -4.203368
H       2.277209   -2.575961   -2.741411
H       1.380031   -2.123409   -0.209165
