17

C      -0.117361    1.466572    0.090102
C       0.013586   -0.052334   -0.005514
O      -1.235291   -0.687964    0.083926
C       0.817396   -0.487713   -1.221796
C       2.061388   -0.590967   -0.416701
C       1.227521   -0.588291    0.895196
N       0.948283   -1.992269    1.207518
C       1.036082   -2.579382    0.083281
N       1.521892   -1.812613   -1.032897
H       0.850726    1.966968   -0.002548
H      -0.781533    1.840264   -0.694932
H      -0.548670    1.743897    1.059028
H      -1.595489   -0.545875    0.966298
H       0.653208   -0.187583   -2.249765
H       3.077819   -0.272533   -0.615615
H       1.518083    0.008492    1.757521
H       0.788473   -3.621718   -0.084292
