23

C      -0.162137    1.751292    0.325869
C       0.054248    0.237990    0.212500
C      -1.210987   -0.552196   -0.147478
O      -2.218524   -0.388124    0.858956
C      -1.781085   -0.232067   -1.550634
O      -2.320486   -1.432576   -2.083456
C      -2.169937   -2.501364   -1.137150
C      -1.983966   -3.803853   -1.896259
C      -0.996574   -2.067082   -0.255220
H       0.768321    2.258094    0.597255
H      -0.509464    2.186646   -0.617685
H      -0.897272    1.989915    1.101912
H       0.824237    0.030520   -0.540364
H       0.430770   -0.146831    1.167275
H      -2.579224    0.500747    0.782958
H      -2.562449    0.539463   -1.490136
H      -0.997945    0.140372   -2.226003
H      -3.077009   -2.559476   -0.517089
H      -1.076921   -3.767830   -2.508147
H      -1.904361   -4.644802   -1.199824
H      -2.835758   -3.986896   -2.557428
H      -0.045263   -2.281502   -0.755032
H      -0.995767   -2.537783    0.730142
