17

C      -0.007132    1.536274    0.010393
C      -0.009068    0.028186    0.002301
C      -0.005601   -0.685676   -1.200410
C       0.021096   -2.073445   -1.215048
C       0.042819   -2.798491   -0.013361
C       0.035228   -2.086563    1.196279
C       0.008448   -0.698686    1.197030
C       0.066743   -4.222667   -0.021251
C       0.087590   -5.427062   -0.027935
H       1.016612    1.930988    0.002708
H      -0.516567    1.941686   -0.868597
H      -0.499734    1.932148    0.903186
H      -0.025898   -0.144197   -2.141673
H       0.021210   -2.610844   -2.156596
H       0.046345   -2.634148    2.131874
H      -0.000778   -0.167467    2.144289
H       0.105752   -6.488527   -0.033828
