19

O       0.187897    0.104868    1.036262
C       0.089060    1.164705    0.479982
C       1.251357    1.960504   -0.104174
C       1.595371    3.150801    0.823512
C       2.631609    2.504185    1.757300
C       3.336699    1.538274    0.822491
C       4.779845    1.667311    0.421982
C       4.301069    0.487302    1.257131
O       2.424228    1.185191   -0.208643
H      -0.896576    1.679566    0.368865
H       0.950455    2.299456   -1.105329
H       2.044556    3.955472    0.235087
H       0.724847    3.556271    1.345802
H       3.312201    3.229686    2.207327
H       2.130156    1.958127    2.563744
H       5.018142    1.471632   -0.617546
H       5.390562    2.428237    0.897339
H       4.580057    0.441364    2.304839
H       4.227330   -0.474585    0.762979
