20

C      -2.457876    0.729726   -2.067678
C      -2.377143   -0.693576   -1.542286
O      -3.016029   -1.599255   -2.064603
N      -1.576499   -0.873393   -0.456288
C      -1.225544   -2.155724    0.104099
C       0.023534   -2.775281   -0.490328
C      -1.529008   -2.343887    1.581514
C      -2.356956   -3.058994    0.550177
O      -3.674619   -2.668739    0.394643
H      -3.492587    1.073818   -1.987991
H      -1.807211    1.434147   -1.543862
H      -2.198192    0.723204   -3.129304
H      -1.063359   -0.074093   -0.117880
H       0.901251   -2.139035   -0.324537
H       0.228973   -3.748637   -0.035547
H      -0.096628   -2.921021   -1.568826
H      -0.824095   -2.905164    2.184950
H      -2.023556   -1.520752    2.084707
H      -2.165296   -4.125273    0.416694
H      -3.784517   -2.497089   -0.556416
