19

C       0.085504    1.524073   -0.135599
C      -0.126992    0.011375   -0.003406
C       0.625622   -0.571509    1.193106
C       0.668309   -2.088285    1.435196
C       1.326305   -2.796511    0.293637
C       2.253979   -2.106419    1.249867
O       3.262822   -2.808685    1.849509
C       2.181750   -0.622392    1.188323
O       3.021997    0.206502    1.434591
H       1.148369    1.765189   -0.231482
H      -0.436049    1.919612   -1.012201
H      -0.292450    2.053570    0.745759
H      -1.196494   -0.207817    0.108512
H       0.190545   -0.484095   -0.928076
H       0.329234   -0.035496    2.103974
H       0.111378   -2.610269    2.201952
H       1.382662   -3.876562    0.397612
H       1.210995   -2.460121   -0.732604
H       3.697743   -2.210899    2.471487
