16

O      -0.050392    1.403146   -0.291222
C      -0.016853    0.024409    0.053618
C      -1.457274   -0.460017    0.088651
N      -2.065541   -0.258131   -1.214933
C      -3.390580   -0.590028   -1.379106
C      -4.233020   -1.400151   -0.676687
O      -5.418259   -1.418013   -1.317420
N      -5.291297   -0.584723   -2.432025
N      -4.116255   -0.116684   -2.452939
H       0.843923    1.693019   -0.491414
H       0.544402   -0.557799   -0.691082
H       0.445215   -0.135030    1.038841
H      -1.466532   -1.529021    0.334505
H      -2.002118    0.069595    0.887996
H      -1.827621    0.640889   -1.614309
H      -4.149058   -1.988345    0.219214
