20

C       0.062502    1.525084    0.157922
C      -0.014326    0.002779   -0.050673
C      -1.426541   -0.527943   -0.057943
C      -2.075385   -0.903599   -1.171080
C      -3.466823   -1.463036   -1.183290
N      -3.833501   -1.970385    0.130378
C      -3.613716   -0.993088    1.188184
C      -2.144310   -0.584372    1.242539
O      -1.619283   -0.261234    2.290022
H       1.104117    1.860875    0.156434
H      -0.465712    2.058501   -0.639354
H      -0.383360    1.805208    1.114995
H       0.474445   -0.267855   -0.992957
H       0.537353   -0.490668    0.756686
H      -1.588383   -0.805866   -2.139477
H      -4.151629   -0.673577   -1.562566
H      -3.523027   -2.283777   -1.909013
H      -4.798044   -2.281462    0.131865
H      -4.200677   -0.058509    1.065993
H      -3.882179   -1.420497    2.157173
