17

C      -0.165841    1.512711    0.007961
N      -0.073273    0.075032    0.153646
C      -1.337829   -0.662005    0.071300
C      -1.094561   -1.856749    0.949569
C       0.034797   -1.717433    1.636994
C       0.710658   -0.410184    1.287155
C       2.165715   -0.642380    0.874084
O       3.117103   -0.461150    1.586754
H       0.835146    1.955308    0.002557
H      -0.640966    1.759765   -0.946896
H      -0.748188    1.998468    0.813253
H      -2.198109   -0.073448    0.445801
H      -1.574734   -0.930838   -0.968357
H      -1.787520   -2.685922    1.020556
H       0.448034   -2.403893    2.364594
H       0.721861    0.273334    2.155295
H       2.258830   -1.015400   -0.170987
