18

O       0.371141    0.910898   -0.812432
C       0.112631    0.278525    0.432008
C      -1.282858   -0.323043    0.477104
C      -1.550962   -1.691657   -0.179930
O      -0.548209   -2.662092    0.208645
C      -1.186906   -2.878724    1.490756
C      -0.851839   -1.753556    2.479587
N      -1.826673   -0.812986    1.807066
C      -2.404599   -2.026711    1.061854
H      -0.211563    1.673839   -0.882810
H       0.861845   -0.511888    0.522371
H       0.239983    0.967799    1.282323
H      -2.007029    0.414916    0.103621
H      -1.821823   -1.773555   -1.234133
H      -1.167234   -3.928680    1.791199
H      -1.222981   -1.968846    3.487607
H       0.186294   -1.419300    2.543961
H      -3.465302   -2.258333    1.126870
