17

C      -0.020453    1.445195    0.089846
C      -0.000725   -0.042919   -0.021914
C      -0.038171   -0.802497   -1.135563
C       0.001977   -2.207806   -0.761144
C       0.004297   -3.524233   -1.189456
C       0.070909   -4.268387    0.013420
N       0.107301   -3.494161    1.104141
N       0.063926   -2.254389    0.597015
C       0.069497   -0.941223    1.206940
H       0.876723    1.823785    0.596058
H      -0.072492    1.911846   -0.897056
H      -0.880771    1.794567    0.674911
H      -0.089981   -0.435042   -2.151311
H      -0.035087   -3.897985   -2.199048
H       0.093805   -5.342591    0.127464
H       0.980087   -0.774457    1.795304
H      -0.789634   -0.803926    1.874923
