20

N      -0.761819   -0.245418   -1.673746
C      -0.353423    0.547686   -0.937482
C       0.169679    1.521104    0.004658
C      -0.184848    1.359046    1.516852
C       1.265044    1.768408    1.863860
C       1.587974    3.209896    2.351292
C       2.742660    2.620866    3.206317
C       2.087772    1.220763    3.052416
C       1.676399    1.432454    0.403588
H      -0.080592    2.525978   -0.345926
H      -0.997356    1.980059    1.901401
H      -0.385779    0.313000    1.764080
H       1.841553    3.956029    1.592633
H       0.783058    3.609633    2.976418
H       3.705519    2.681087    2.692110
H       2.866631    3.011580    4.218256
H       1.445425    0.974776    3.904374
H       2.740757    0.366264    2.853367
H       2.047080    0.408300    0.308906
H       2.361525    2.110290   -0.110733
