22

C       0.664876    1.728065   -0.457754
C       0.068400    0.449807    0.139594
C       0.146101   -0.730196   -0.850855
C       0.807459    0.055481    1.416503
O       1.996724    0.226291    1.577683
N       0.027505   -0.641884    2.343796
C      -1.030015   -0.047058    3.148701
C       0.244353   -0.545910    3.769636
C       0.304237   -1.825061    4.567079
H       1.733782    1.594722   -0.641205
H       0.172731    1.975152   -1.403430
H       0.548572    2.580067    0.219264
H      -0.986734    0.611961    0.389218
H       1.188413   -0.941549   -1.109930
H      -0.290785   -1.636506   -0.422636
H      -0.393290   -0.488911   -1.772063
H      -1.176818    1.028821    3.081829
H      -1.943877   -0.629441    3.239879
H       0.954094    0.224194    4.068450
H      -0.423272   -2.550748    4.192567
H       1.300008   -2.273984    4.498343
H       0.090918   -1.631562    5.623467
