15

O      -0.057555   -0.025093    0.129576
C       0.028187    1.166749   -0.049857
C       1.318334    1.907391   -0.037310
C       2.636124    1.194798    0.207056
O       3.575608    2.294460    0.127938
C       2.755936    3.395247   -0.127663
C       1.591982    3.037339   -1.102395
O       0.691019    3.968156   -0.424884
C       1.414861    3.315820    0.664922
H      -0.863535    1.798164   -0.238754
H       2.695073    0.722512    1.192515
H       2.870400    0.446875   -0.556741
H       3.310257    4.326555   -0.218857
H       1.551428    2.970558   -2.189091
H       1.162571    3.581912    1.690864
