16

O       0.004171   -0.052295    0.040026
C       0.037893    1.154083    0.010877
N      -1.123353    1.930967   -0.008526
C      -1.114516    3.327821   -0.042229
O      -2.132062    3.977183   -0.058548
C       0.295667    3.889069   -0.055011
C       1.137343    3.102627   -1.106670
C       1.294159    2.005659   -0.008965
C       1.136138    3.154337    1.034330
H      -2.017597    1.457149    0.002404
H       0.256994    4.976314   -0.081293
H       0.665286    2.829234   -2.052770
H       2.088855    3.602350   -1.299683
H       2.172446    1.363286    0.007045
H       2.087444    3.662826    1.204062
H       0.663011    2.926923    1.991993
