20

C       0.076024    1.574304    0.017513
C      -0.008593    0.045259   -0.028498
C      -1.446624   -0.503157   -0.019337
C      -2.223340   -0.133315   -1.288321
C      -1.418566   -2.060144    0.169029
C      -0.747733   -2.479948    1.401745
C      -0.202404   -2.819061    2.416077
C      -2.777115   -2.628187    0.133459
N      -3.847947   -3.059861    0.095562
H       1.119547    1.898213    0.073656
H      -0.364022    2.041077   -0.868482
H      -0.441860    1.971610    0.897457
H       0.506597   -0.325626   -0.925723
H       0.531655   -0.365798    0.830224
H      -1.971396   -0.093028    0.852458
H      -1.723629   -0.527533   -2.181550
H      -3.242151   -0.528287   -1.268195
H      -2.290703    0.951607   -1.396700
H      -0.875589   -2.484806   -0.688301
H       0.278403   -3.125671    3.312396
