20

C      -0.089531    1.360939   -0.075444
O      -0.021619   -0.041765    0.075256
C       0.628007   -0.496739    1.209678
C       2.109409   -0.125152    1.631726
C       1.623235   -0.807547    2.942244
C       0.247043   -0.133837    2.675353
N       1.558171   -2.235049    2.478244
C       0.206199   -2.813590    2.365562
C       0.763808   -2.026467    1.238456
H       0.908999    1.815135   -0.138321
H      -0.621547    1.551579   -1.010056
H      -0.640589    1.837385    0.747204
H       2.926789   -0.615959    1.099374
H       2.288304    0.946792    1.737018
H       2.146133   -0.693980    3.889535
H       0.307172    0.939353    2.861835
H      -0.668277   -0.525954    3.118448
H       0.222232   -3.896721    2.279412
H      -0.612747   -2.435934    2.966101
H       1.098302   -2.509391    0.324330
