16

C      -0.088247    1.385359    0.035345
O       0.025331   -0.043986   -0.038524
C       0.627523   -0.519702   -1.141599
O       1.070211    0.162942   -2.029331
C       0.668431   -2.036075   -1.103697
C      -0.641164   -2.750459   -1.575691
C       0.210168   -3.227187   -2.779872
O       0.009218   -3.841889   -3.788056
N       1.343882   -2.647728   -2.242221
H       0.900759    1.849501    0.017164
H      -0.672759    1.767797   -0.804922
H      -0.592117    1.593740    0.978727
H       1.035014   -2.365191   -0.126733
H      -1.005928   -3.540224   -0.918257
H      -1.462723   -2.087110   -1.850056
H       2.192252   -2.350658   -2.703153
