21

C      -0.026967    1.580467   -0.063896
C      -0.028489    0.039798   -0.048638
C      -1.441077   -0.548801    0.168713
C      -1.528834   -0.796119    1.704019
C      -0.073201   -0.979435    2.096036
C       0.730140   -0.521634    1.141992
C       2.180060   -0.597676    0.774589
O       2.204005   -0.406015   -0.649524
C       0.871147   -0.509883   -1.167889
H       0.993168    1.971298   -0.123135
H      -0.581771    1.955754   -0.931218
H      -0.495033    1.985502    0.838904
H      -2.237535    0.101750   -0.203602
H      -1.527325   -1.508679   -0.352820
H      -1.988455    0.053043    2.229521
H      -2.140220   -1.671669    1.949529
H       0.234041   -1.446490    3.025546
H       2.797169    0.187676    1.229750
H       2.622507   -1.568026    1.041758
H       0.618430   -1.558835   -1.391125
H       0.846890    0.063794   -2.099283
