23

C      -0.173257    1.632529   -0.062764
C      -0.008820    0.103853   -0.012237
C       0.683272   -0.452316   -1.277742
C       2.191177   -0.334818   -1.268883
O       2.755364    0.942194   -0.953306
C       2.929426   -0.127704   -0.010857
C       2.194875    0.008029    1.310839
C       0.717507   -0.430207    1.246724
C      -0.010437   -0.098629    2.553645
H       0.790420    2.140770   -0.125749
H      -0.752293    1.916017   -0.948382
H      -0.714942    2.007643    0.810717
H      -1.019049   -0.327014    0.006064
H       0.446504   -1.520156   -1.381948
H       0.286087    0.039766   -2.174471
H       2.700354   -0.847505   -2.087125
H       3.959516   -0.480550    0.046296
H       2.711263   -0.592977    2.068446
H       2.272901    1.050838    1.643436
H       0.719838   -1.525942    1.143813
H      -0.011653    0.978034    2.752490
H      -1.052452   -0.435168    2.524764
H       0.474459   -0.588042    3.405362
