17

C       0.244159    1.620070    0.213889
C      -0.100322    0.149188   -0.070893
C       0.570586   -0.374134   -1.300688
C      -0.020498   -0.825817   -2.470325
N       1.040826   -1.186131   -3.291145
C       2.182433   -0.942640   -2.601207
N       1.937495   -0.455179   -1.404452
C      -1.364816   -0.945454   -2.864017
C      -2.517053   -1.050215   -3.203697
H       1.326255    1.747116    0.303291
H      -0.106110    2.268444   -0.595494
H      -0.222527    1.954924    1.145350
H       0.207176   -0.462737    0.786212
H      -1.182957    0.026583   -0.177942
H       0.956249   -1.560897   -4.221309
H       3.159862   -1.140040   -3.016077
H      -3.534312   -1.138381   -3.494477
