17

O       0.150019    1.353774   -0.104059
C       0.100508   -0.044064   -0.076383
C       0.129871   -0.648076    1.361392
O      -1.290880   -0.278038    1.456260
C      -1.344445   -0.622278    0.026892
C      -1.267043   -2.186715   -0.080168
C      -1.242437   -2.766659    1.354634
C       0.198625   -2.212361    1.246503
O       0.154106   -2.528182   -0.183617
H      -0.461265    1.663223    0.577253
H       0.779939   -0.420650   -0.834278
H       0.735454   -0.199286    2.151050
H      -2.181465   -0.148246   -0.489242
H      -1.867907   -2.624241   -0.878710
H      -1.919491   -2.376828    2.110159
H      -1.234870   -3.855987    1.325215
H       1.044231   -2.675197    1.757254
