14

C      -0.016930   -1.250322    0.298457
C       0.007278   -0.061128    0.132361
C       0.036824    1.388204   -0.067074
C       1.417711    1.959034   -0.163404
C       2.100070    2.575085   -1.165275
C       3.389634    2.907424   -0.632472
C       3.387575    2.466125    0.650658
O       2.193834    1.887645    0.953424
H      -0.034080   -2.301624    0.445692
H      -0.497479    1.645886   -0.988362
H      -0.508787    1.875705    0.752477
H       1.733655    2.766307   -2.161811
H       4.200538    3.405464   -1.140083
H       4.112753    2.482659    1.447187
