18

C      -0.273333    1.342766   -0.064713
C      -0.098612   -0.163766   -0.016670
O      -0.435475   -0.852047    0.916974
N       0.571323   -0.694864   -1.123253
C       0.254254   -0.518712   -2.519179
C       0.211151   -1.891556   -1.868956
C       1.330842   -2.886275   -2.114846
C      -1.096301   -2.469350   -1.660662
C      -2.171448   -2.985064   -1.512615
H       0.618828    1.834794   -0.461124
H      -1.112663    1.599901   -0.720911
H      -0.492074    1.706765    0.939045
H      -0.699574   -0.067615   -2.781803
H       1.084744   -0.270948   -3.176622
H       2.274534   -2.358187   -2.271645
H       1.441738   -3.548790   -1.252185
H       1.111409   -3.499225   -2.993657
H      -3.122548   -3.432579   -1.360561
