18

C      -0.012655    1.463092   -0.028815
O       0.058929    0.055230   -0.001003
C       0.631857   -0.488004   -1.172816
C       0.621138   -2.005649   -1.015243
C      -0.796064   -2.540089   -0.848937
O      -1.091646   -3.712389   -0.841941
C       1.421972   -2.690053   -2.144715
N       1.386668   -4.047891   -2.120305
O       2.065420   -2.036432   -2.942747
H       0.985331    1.916955   -0.124962
H      -0.635344    1.822679   -0.862558
H      -0.460623    1.785790    0.913792
H       0.056577   -0.190599   -2.065174
H       1.659388   -0.134859   -1.322639
H       1.128490   -2.252468   -0.070804
H      -1.568504   -1.759185   -0.709374
H       0.640387   -4.500991   -1.609131
H       1.801421   -4.524102   -2.906300
