18

C      -0.039446    1.617381   -0.011423
C       0.115652    0.091955    0.016729
C       0.741073   -0.520204   -1.254839
C       0.611647   -2.047576   -1.422169
O      -0.229150   -1.849740   -2.609539
C      -0.147684   -0.484338   -2.495913
N      -0.640882    0.438603   -3.187242
C       2.132527    0.024383   -1.530855
O       3.133629   -0.644543   -1.511096
H       0.926689    2.130214    0.011246
H      -0.573965    1.937379   -0.909721
H      -0.604733    1.949922    0.863875
H       0.722554   -0.215045    0.877543
H      -0.869562   -0.369855    0.149689
H       1.534886   -2.570601   -1.671879
H       0.057160   -2.569289   -0.639323
H      -1.200463    0.074634   -3.960534
H       2.164026    1.107482   -1.764986
