21

C      -0.151853    1.551665   -0.030129
C      -0.014511    0.034472   -0.001114
C       1.097359   -0.597102   -0.893551
C       2.098744   -0.266850    0.266055
C       0.839293   -0.592177    1.155995
C       0.715039   -0.166743    2.600929
C       0.735572   -2.107912    0.826989
O      -0.336696   -2.508808   -0.043015
C       0.917357   -2.109279   -0.622351
H       0.794889    2.088028    0.079579
H      -0.599800    1.869404   -0.978095
H      -0.816758    1.890404    0.772087
H      -0.998713   -0.418274   -0.123454
H       1.266471   -0.276786   -1.921867
H       2.971525   -0.918939    0.376439
H       2.415569    0.776592    0.307174
H       0.861929    0.912029    2.715002
H      -0.274362   -0.414392    3.001989
H       1.461081   -0.669523    3.227714
H       1.101796   -2.864494    1.514411
H       1.443574   -2.868069   -1.191747
