13

O      -0.105359    1.472295    0.131746
C      -0.033963    0.072674    0.008783
C      -1.374773   -0.658261    0.047557
C      -2.201457   -0.247049   -1.114547
C      -1.105691   -1.285191   -1.352910
C       0.205874   -0.570219   -1.396162
O       1.155253   -0.575785   -2.129251
H       0.731768    1.834200   -0.179749
H       0.687184   -0.367872    0.715985
H      -1.777773   -1.167884    0.911981
H      -3.205021   -0.656151   -1.160881
H      -2.102290    0.753414   -1.520755
H      -1.334421   -2.272403   -1.733418
