19

N      -0.334811    1.326402   -0.174895
C       0.080399   -0.042733    0.134177
C       0.636965   -0.753892   -1.036236
N       1.106933   -1.265684   -1.961215
C       1.126359   -0.054811    1.297375
N       2.334720    0.720355    1.038217
C       0.467415    0.420256    2.577652
C      -0.026602   -0.573178    3.565997
N       1.162003    0.245014    3.855838
H       0.422513    1.816025   -0.642178
H      -1.115749    1.319865   -0.823078
H      -0.802621   -0.595313    0.474165
H       1.435399   -1.099629    1.429997
H       2.774661    0.445755    0.164882
H       2.131981    1.714094    0.998851
H      -0.056495    1.367981    2.482588
H      -0.897178   -0.350192    4.176268
H       0.105481   -1.628597    3.338174
H       2.012795   -0.293253    3.707193
