20

C       0.029595    1.542842   -0.165261
C      -0.023442    0.044102    0.146388
C      -1.419589   -0.537766    0.042334
C      -2.167706   -0.597375   -1.332474
C      -2.912066   -1.808467   -0.723684
C      -1.641619   -2.083699    0.113678
O      -3.961475   -1.332300    0.147138
C      -3.513942   -0.365345    0.983892
N      -2.331291    0.088279    1.021204
H       1.043424    1.934452   -0.039725
H      -0.279985    1.746016   -1.196496
H      -0.638653    2.093584    0.501786
H       0.638173   -0.508298   -0.532949
H       0.345168   -0.133722    1.164457
H      -2.760632    0.268518   -1.632886
H      -1.507989   -0.912467   -2.144323
H      -3.361133   -2.577173   -1.350610
H      -0.899442   -2.632052   -0.471094
H      -1.764687   -2.535953    1.099900
H      -4.301260   -0.009409    1.643579
