17

N       0.073638   -1.161038    0.045782
C       0.078913   -0.006423    0.041094
C       0.023498    1.461761    0.046702
C      -0.736501    1.992902    1.278895
C      -0.553025    3.499997    1.391552
N       0.690993    3.944270    2.046466
C       0.524237    4.170388    0.608091
C       1.394641    3.334682   -0.306756
O       1.350534    1.950331    0.005316
H      -0.514573    1.772383   -0.865903
H      -1.795902    1.736148    1.182996
H      -0.349490    1.506314    2.177939
H      -1.455057    4.072271    1.591144
H       0.530978    4.806460    2.560231
H       0.344842    5.184713    0.256750
H       1.075598    3.495942   -1.350671
H       2.446089    3.622474   -0.219158
