20

O      -0.063000    1.436845   -0.009194
C      -0.008048    0.011890    0.026179
C       0.817821   -0.504185    1.212342
C       0.697091   -2.026786    1.335188
C      -0.741191   -2.445947    1.682257
C      -1.799957   -1.726750    0.843250
C      -2.297083   -0.362290    1.255227
C      -1.431936   -0.497784    0.030723
H       0.841599    1.762147   -0.068231
H       0.471360   -0.361163   -0.895932
H       1.865537   -0.209860    1.070452
H       0.477251   -0.014086    2.132963
H       0.992143   -2.484060    0.381056
H       1.391154   -2.409687    2.091229
H      -0.845954   -3.527497    1.547182
H      -0.923431   -2.254983    2.747592
H      -2.540975   -2.377873    0.389980
H      -3.344960   -0.121781    1.113261
H      -1.859284    0.084760    2.141878
H      -1.937358   -0.374990   -0.922441
