11

O       0.411961    0.946708   -1.474100
C       0.062182    1.434121   -0.435069
C       0.957077    1.496784    0.734671
N       1.672240    1.502710    1.642706
C      -1.311465    2.019816   -0.204668
C      -1.978327    1.813557    1.112600
O      -1.381138    3.051759    0.778194
C      -2.119323    2.191443   -1.394318
N      -2.776319    2.327652   -2.333586
H      -3.065560    1.795363    1.121676
H      -1.466817    1.232447    1.876782
