16

N      -0.071518   -3.712878   -0.016889
C      -0.031792   -2.552158   -0.050086
C       0.016020   -1.188548   -0.087572
C       0.053925    0.018894   -0.121055
C       0.128278    1.468480   -0.149674
C       1.496967    2.012072    0.323794
C       1.520682    3.520115    0.279072
C       2.687332    4.271487   -0.197946
O       1.533354    4.106779   -1.025207
H      -0.059852    1.824860   -1.169722
H      -0.674217    1.879956    0.476790
H       1.697966    1.668558    1.344520
H       2.285854    1.611770   -0.319988
H       0.846087    4.019953    0.977699
H       2.864272    5.283428    0.162536
H       3.575418    3.730881   -0.522232
