20

C       0.969299    0.106309    0.324699
O       1.135292    0.012460   -1.080863
C       0.017129   -0.555775   -1.747206
C       0.025926   -2.075509   -1.555807
O      -0.570281   -2.622665   -0.648975
N       0.754925   -2.765995   -2.504111
C       2.115099   -2.516047   -2.939229
C       1.728344   -3.809016   -2.266567
C       2.189570   -4.124248   -0.863668
H       0.115423    0.751807    0.578387
H       0.809229   -0.873831    0.790527
H       1.884755    0.553404    0.719259
H      -0.927391   -0.159261   -1.352197
H       0.115655   -0.290570   -2.803310
H       2.274475   -2.488192   -4.014359
H       2.696695   -1.801488   -2.363294
H       1.599305   -4.675514   -2.913645
H       2.412901   -3.210558   -0.305808
H       1.417544   -4.670044   -0.315287
H       3.095816   -4.737193   -0.897796
