17

O       0.144341    1.323583   -0.246988
C      -0.037785   -0.056460   -0.182816
C      -1.513778   -0.411588   -0.019586
O      -2.326326    0.492200    0.046317
C      -1.848785   -1.853604    0.021605
C      -3.142396   -2.465367    0.552014
C      -4.350862   -1.620417    0.141787
O      -3.935030   -1.663955   -1.257286
C      -2.863382   -2.514585   -0.918035
H      -0.751075    1.693633   -0.169688
H       0.339473   -0.558043   -1.090384
H       0.515778   -0.497124    0.664567
H      -0.992243   -2.504927    0.181699
H      -3.127080   -3.239532    1.306913
H      -5.294168   -2.161820    0.263490
H      -4.421787   -0.601541    0.519997
H      -2.583842   -3.300783   -1.610086
