17

C      -0.200030    1.519802    0.094391
N       0.047804    0.090469   -0.071326
C       0.535600   -0.633207   -1.214976
C       1.372109    0.014904   -2.321107
N       1.605437    1.458240   -2.159349
C       2.652837    0.490105   -1.737177
C       2.645865    0.112498   -0.262667
O       3.601699    0.176214    0.468836
C       1.327259   -0.576737    0.074375
H       0.660972    2.165334   -0.085359
H      -0.994267    1.816485   -0.596114
H      -0.564846    1.668906    1.116375
H      -0.043577   -1.509342   -1.498708
H       1.320262   -0.410323   -3.317432
H       1.894167    1.856303   -3.050904
H       3.606897    0.485449   -2.252168
H       1.391752   -1.365334    0.821232
