21

C       0.014911    1.522735    0.099278
C       0.014880    0.007273   -0.030466
C       0.656121   -0.491910   -1.328479
C       0.556089   -2.022150   -1.419349
C       0.881361   -2.704081   -0.101814
O       0.297344   -3.972431    0.059894
C       2.190029   -2.468746    0.620783
C       0.896088   -1.878470    1.150460
O       0.737472   -0.491926    1.097238
H       1.036713    1.911183    0.043859
H      -0.575336    1.977268   -0.701981
H      -0.411744    1.821928    1.060266
H      -1.023491   -0.364031    0.013735
H       0.159512   -0.036304   -2.191943
H       1.701476   -0.159374   -1.347178
H      -0.476809   -2.299895   -1.661450
H       1.188134   -2.410103   -2.228559
H       0.803032   -4.597330   -0.472125
H       2.617156   -3.311312    1.153321
H       2.902531   -1.768570    0.197765
H       0.462839   -2.331228    2.038920
