16

C      -0.048190    1.570099    0.043802
C       1.482964    1.377020    0.008032
O       1.740475    0.762735    1.288095
C       0.893649   -0.395908    1.178846
O       1.655613   -1.481495    0.720516
C       2.126739   -1.078767   -0.581778
C       1.258567    0.132589   -0.918851
C      -0.009519    0.023997   -0.007098
H      -0.458882    2.059421    0.929598
H      -0.458358    2.003817   -0.871221
H       2.207219    2.167400   -0.183249
H       0.456970   -0.651025    2.143157
H       3.194491   -0.833000   -0.534307
H       1.987777   -1.911634   -1.279408
H       1.091927    0.350699   -1.972357
H      -0.863038   -0.612893   -0.231688
