23

C       0.230274    1.111903   -0.150829
O      -0.390360   -0.024710    0.414542
C       0.409154   -0.663419    1.360497
C       0.011468   -2.054552    1.742074
C       1.273662   -1.826365    0.946993
C       1.545433   -2.269651   -0.494896
C       3.066182   -2.372334   -0.143002
C       3.961143   -1.335748   -0.810931
C       2.726726   -2.091728    1.358126
H       1.165957    0.857480   -0.668696
H      -0.471529    1.537792   -0.871984
H       0.455893    1.870077    0.615008
H       0.791143   -0.003014    2.143328
H       0.088858   -2.346063    2.785047
H      -0.835866   -2.476782    1.210566
H       1.087575   -3.228236   -0.757051
H       1.286053   -1.545272   -1.272723
H       3.478168   -3.371718   -0.309187
H       3.574943   -0.321471   -0.654409
H       4.978366   -1.368041   -0.404564
H       4.025534   -1.503684   -1.891839
H       3.259600   -1.247287    1.809251
H       2.852181   -2.963059    2.008634
