23

C       0.991637    1.198915   -0.674542
C       0.699979   -0.235757   -0.291986
C       1.803655   -1.195984    0.082343
C       0.776052   -0.770056    1.124196
C       1.249556    0.129449    2.257007
C      -0.305384   -1.719583    1.576852
C      -0.547062   -3.084723    0.951386
C       0.042527   -2.976184    2.334376
O       1.373329   -3.324631    2.589490
H       1.834984    1.612896   -0.115592
H       1.241901    1.268445   -1.739013
H       0.124557    1.844945   -0.496237
H      -0.098954   -0.686312   -0.876307
H       1.784650   -2.195846   -0.338678
H       2.804178   -0.786667    0.190038
H       2.037276    0.818534    1.942938
H       0.420995    0.727763    2.654169
H       1.642050   -0.476652    3.080391
H      -1.199043   -1.200116    1.919065
H      -1.571140   -3.424143    0.836299
H       0.119272   -3.416076    0.161903
H      -0.577554   -3.260603    3.178345
H       1.932275   -2.819588    1.989393
