16

C      -0.017531    1.468754    0.092313
C       1.302938    0.756669    0.011868
C       2.061900    0.479805    1.328006
C       1.106441   -0.409834    2.075719
C       0.898403   -1.107088    3.215380
O      -0.254709   -1.807649    3.121258
N      -0.852533   -1.565780    1.871274
C      -0.030300   -0.740574    1.283832
C      -0.005014   -0.045903   -0.020365
H      -0.327058    1.905511    1.036480
H      -0.340915    2.019283   -0.784375
H       1.887077    0.876308   -0.892780
H       3.011588   -0.028120    1.124363
H       2.303682    1.406763    1.859775
H       1.436381   -1.234012    4.142028
H      -0.383078   -0.521674   -0.915763
