19

C      -0.094866    1.368410    0.082807
O      -0.001392   -0.035541    0.041481
C       0.709145   -0.502320   -1.083145
C       0.738954   -2.021014   -1.012383
C       1.477076   -2.648151   -2.168577
O       1.995290   -2.020174   -3.064753
C       1.555723   -4.196470   -2.174678
C       2.295015   -4.816630   -3.333720
O       1.038758   -4.823785   -1.280262
H       0.897996    1.843139    0.131542
H      -0.622011    1.769272   -0.797503
H      -0.657095    1.632331    0.981709
H       0.228772   -0.171763   -2.018038
H       1.734550   -0.099316   -1.096765
H       1.199206   -2.359150   -0.075928
H      -0.278177   -2.430357   -0.980572
H       3.322957   -4.441736   -3.366419
H       2.287749   -5.902252   -3.236144
H       1.832592   -4.513750   -4.278551
