20

C       0.085048    1.464894   -0.050900
N      -0.092376    0.032994   -0.196482
C      -1.181661   -0.627765    0.290651
O      -2.100595   -0.066556    0.862279
C      -1.156292   -2.143967    0.092076
C      -2.561734   -2.707322   -0.137311
C      -2.594089   -4.243713   -0.139227
C      -4.004010   -4.773661   -0.272591
O      -4.373511   -5.554530   -1.110940
H       0.977717    1.700113    0.539645
H       0.170583    1.956522   -1.026163
H      -0.795315    1.848135    0.465961
H       0.624065   -0.498133   -0.662239
H      -0.484399   -2.422806   -0.728376
H      -0.730645   -2.581148    1.005712
H      -3.217205   -2.309594    0.643793
H      -2.954595   -2.330900   -1.089299
H      -1.986066   -4.669102   -0.943667
H      -2.195258   -4.612456    0.817990
H      -4.714235   -4.372121    0.488607
