18

O       0.139685    1.424275   -0.034209
C       0.068060    0.012605   -0.076132
C      -1.376917   -0.508927   -0.024802
N      -2.019785   -0.158560    1.233936
C      -1.948265   -0.946076    2.340188
O      -1.286721   -1.959176    2.427430
C      -2.215898    0.040129   -1.174377
C      -3.668453   -0.144895   -1.243530
O      -3.103707    1.120842   -0.868798
H      -0.218331    1.703795    0.815178
H       0.528458   -0.290782   -1.023030
H       0.635702   -0.456143    0.739380
H      -1.336606   -1.603219   -0.090429
H      -2.659895    0.622956    1.202092
H      -2.564903   -0.550312    3.171288
H      -1.669236    0.168817   -2.107389
H      -4.167556   -0.159212   -2.210110
H      -4.177889   -0.679253   -0.443590
