16

C      -0.120300    1.409847   -0.069819
N      -0.160719   -0.043338   -0.166355
C       0.588712   -0.632462   -0.967941
O       1.508380   -0.158678   -1.893717
C       1.969462   -1.504177   -2.200673
C       0.848089   -2.111729   -1.307101
O       1.227717   -2.970885   -0.297984
C      -0.306143   -2.690707   -2.106727
O      -0.803464   -3.745513   -1.803331
H       0.668106    1.875973   -0.671518
H      -1.088787    1.813934   -0.384140
H       0.018092    1.688972    0.979511
H       1.937280   -1.700264   -3.275461
H       2.964689   -1.696615   -1.794239
H       0.589007   -3.703305   -0.317356
H      -0.659726   -2.091676   -2.967990
