16

C      -0.046316    1.519885    0.010666
C       1.415651    1.905282   -0.001278
C       2.198602    0.813065   -0.014688
C       1.361553   -0.387920   -0.013101
C       1.660294   -1.746523   -0.023267
N       0.711241   -2.689573   -0.019241
C      -0.564222   -2.292853   -0.004877
C      -0.975603   -0.955588    0.006265
C       0.011983    0.011668    0.001992
H      -0.569606    1.908577    0.894679
H      -0.586441    1.918025   -0.858898
H       1.753254    2.933649    0.001022
H       3.281412    0.800989   -0.025147
H       2.690347   -2.096987   -0.035042
H      -1.308646   -3.085760   -0.001998
H      -2.031893   -0.706750    0.017737
