14

C      -0.022418    1.444867   -0.001990
N      -0.006255   -0.015634    0.001498
N      -0.038135   -0.612510   -1.201140
C      -0.024140   -1.916079   -1.223242
C       0.022880   -2.724204   -0.053885
C       0.054336   -2.096242    1.143862
F       0.098946   -2.758370    2.285208
C       0.041028   -0.642497    1.254627
O       0.068539   -0.001886    2.290818
H       0.874603    1.829019    0.489940
H      -0.062398    1.765926   -1.040575
H      -0.890893    1.809309    0.552119
H      -0.050767   -2.365702   -2.208878
H       0.033330   -3.806193   -0.115734
