19

C       0.483620    1.365431   -0.011162
O       0.522883   -0.041017    0.047946
C       0.096612   -0.633974   -1.164523
C       0.148155   -2.085547   -1.061728
C       0.173587   -3.286977   -1.002884
C       0.239559   -4.742376   -0.926767
C       1.453862   -5.320395   -1.633949
C       1.431282   -6.667921   -2.212532
O       1.345236   -5.506822   -3.042238
H       1.142514    1.761911   -0.800483
H      -0.535874    1.740134   -0.197309
H       0.826329    1.739444    0.956118
H      -0.931894   -0.312730   -1.406986
H       0.733619   -0.296244   -2.001037
H       0.265271   -5.050936    0.127417
H      -0.662729   -5.186970   -1.363957
H       2.410585   -4.910585   -1.309144
H       2.354493   -7.239263   -2.295842
H       0.521518   -7.264357   -2.149158
