18

O      -0.231055   -0.038498   -0.285922
C      -0.087849    1.170568   -0.296718
C       1.143440    1.864718    0.017344
C       1.154779    3.220576   -0.031547
N       2.242450    3.996412    0.222569
C       3.424385    3.429473    0.812292
C       3.338602    2.753705    2.168183
C       3.507901    1.931334    0.911239
C       2.375296    1.071036    0.366601
H      -0.941458    1.843013   -0.554052
H       0.254273    3.764787   -0.303597
H       2.073113    4.972073    0.411860
H       4.323031    3.985040    0.566423
H       4.176648    2.849619    2.849743
H       2.363184    2.741744    2.644011
H       4.498570    1.515229    0.756803
H       2.112225    0.272415    1.070725
H       2.733383    0.553751   -0.533059
