18

O      -0.077788    1.446887    0.406220
C       0.050550    0.107301    0.068059
C      -0.438387   -0.966983    1.028500
C      -1.232827   -0.684829   -0.208716
N      -2.418455    0.112135   -0.084306
C      -3.341726    0.124443   -1.217853
C      -3.699505   -0.585689    0.040458
C       1.225602   -0.194194   -0.785193
O       1.545815   -1.310266   -1.123202
H      -1.032069    1.626292    0.403861
H       0.127080   -1.891510    1.055680
H      -0.826332   -0.600319    1.972019
H      -1.187885   -1.419142   -1.013605
H      -3.787161    1.086424   -1.452027
H      -3.083439   -0.483650   -2.081962
H      -3.680336   -1.672478    0.026003
H      -4.405881   -0.146960    0.738632
H       1.788805    0.709438   -1.101832
