22

C      -0.098782    1.501250    0.040934
C      -0.026086   -0.013870    0.034760
C      -1.246062   -0.697155   -0.552544
C       1.332537   -0.655420   -0.191129
C       0.690154   -0.693932    1.168061
C       1.276461   -0.098737    2.476565
C       0.836782   -1.389313    3.184470
N      -0.633640   -1.492310    3.007985
C       0.280630   -1.945447    1.921521
H       0.801277    1.948697    0.473107
H      -0.207535    1.891717   -0.978130
H      -0.958372    1.851195    0.624441
H      -1.409409   -0.384609   -1.590893
H      -1.141157   -1.786128   -0.546051
H      -2.146334   -0.447639    0.020029
H       1.377458   -1.578334   -0.763038
H       2.192641   -0.006621   -0.330950
H       2.362806    0.017707    2.435305
H       0.818307    0.818189    2.856726
H       1.333107   -1.892007    4.005022
H      -0.928858   -2.330895    3.509746
H       0.253229   -2.966427    1.559832
