15

O       0.127726    1.430499   -0.061625
C       0.081478    0.061571   -0.022787
C       0.607415   -0.980139   -1.190332
C      -0.056431   -1.765587   -0.043604
C       0.697083   -0.903519    1.005764
O      -0.857255   -2.874378    0.450024
C      -1.833104   -1.928877    0.860126
O      -2.778983   -2.147247    1.534282
C      -1.223307   -0.801592   -0.035319
H       0.976104    1.726936    0.286373
H       0.077545   -0.935489   -2.141522
H       1.690779   -1.053844   -1.312003
H       1.785530   -0.989322    1.024404
H       0.262473   -0.885338    2.007820
H      -1.802869   -0.751260   -0.960689
