15

C       0.010281    1.526355    0.220733
C      -0.015488    0.048772   -0.039446
C      -1.153696   -0.610316   -0.320210
O      -1.164572   -1.962725   -0.558562
C      -0.020122   -2.680092   -0.515680
O      -0.015955   -3.868450   -0.729731
C       1.200909   -1.887659   -0.193634
N       2.324911   -2.633404   -0.143619
N       1.201687   -0.608134    0.024976
H       0.663953    2.029175   -0.499834
H      -0.988248    1.964752    0.151408
H       0.413428    1.731723    1.218067
H      -2.143372   -0.183456   -0.390467
H       2.259207   -3.609729   -0.375553
H       3.212901   -2.190621    0.013372
