19

C       0.712930    0.595724   -0.626516
C      -0.001462   -0.775299   -0.573361
C       0.829150   -1.728461    0.170898
N       1.479029   -2.461492    0.785164
C      -1.424386   -0.702192    0.007110
C      -2.384589    0.210183   -0.750523
O      -2.217935    1.567172   -0.389278
C      -1.989483   -1.842124    0.773109
N      -1.620995   -0.588528    1.462741
H       1.690385    0.492864   -1.103766
H       0.108969    1.314656   -1.179602
H       0.863485    0.989988    0.381944
H      -0.087558   -1.161035   -1.598092
H      -2.212708    0.146274   -1.830562
H      -3.414393   -0.124378   -0.559261
H      -2.263668    1.580200    0.575932
H      -3.056174   -2.040897    0.722479
H      -1.367836   -2.715810    0.941548
H      -0.740850   -0.723073    1.956967
