20

C       0.882781    1.188964    0.134209
N       0.043626    0.001029    0.072904
C      -0.865037   -0.220692    1.067960
O      -0.990370    0.447674    2.073184
C       0.021046   -0.779199   -1.156401
C      -0.851770   -0.136936   -2.238150
C       1.398337   -1.241411   -1.699542
O       0.908547   -2.585653   -1.866668
C      -0.225575   -2.306590   -1.025330
H       1.937042    0.930103   -0.007097
H       0.599394    1.924673   -0.627918
H       0.747248    1.633165    1.120059
H      -1.493619   -1.108396    0.865461
H      -0.502891    0.871252   -2.482120
H      -0.823345   -0.736452   -3.152754
H      -1.890627   -0.066224   -1.900349
H       1.739716   -0.802185   -2.642636
H       2.202547   -1.192722   -0.953445
H      -0.079529   -2.693242   -0.008646
H      -1.159360   -2.698609   -1.441188
