16

O       0.788923    1.195472    1.325279
C       0.545648    1.772694    0.299117
C       1.198174    1.444052   -1.040617
N       1.276091    2.618590   -1.884304
C       2.275275    3.546575   -1.578092
C       3.056818    3.609749   -0.457767
O       3.867231    4.712581   -0.515567
C       3.604358    5.336488   -1.684635
C       2.640459    4.681816   -2.381166
H      -0.206263    2.591046    0.236515
H       2.168028    0.958284   -0.848688
H       0.547203    0.707486   -1.528314
H       1.216818    2.414899   -2.871135
H       3.145063    3.004251    0.426900
H       4.175998    6.228528   -1.882147
H       2.227778    4.961248   -3.338128
