19

C      -0.059871    1.556728   -0.138675
C      -0.014493    0.027531   -0.132680
C      -1.388091   -0.599549    0.177526
C      -1.365993   -2.088605    0.177059
N      -1.508127   -2.893261    1.188271
C      -1.381441   -4.166921    0.651534
N      -1.422887   -5.276280    1.489106
C      -1.164869   -4.063870   -0.686203
O      -1.154246   -2.717515   -0.996690
H       0.924492    1.980069   -0.360021
H      -0.760965    1.930123   -0.893486
H      -0.380437    1.948358    0.833057
H       0.332874   -0.341500   -1.104166
H       0.711019   -0.323169    0.610617
H      -1.737357   -0.280509    1.163327
H      -2.119814   -0.247902   -0.560990
H      -1.931207   -5.075318    2.339889
H      -1.772146   -6.115286    1.047819
H      -1.008958   -4.751398   -1.497362
