20

C      -0.710757    1.325636   -0.026026
C       0.123695    0.046050   -0.051725
C       1.312874    0.052908   -1.026588
C       2.261519   -0.961663   -0.431791
N       3.209861   -1.538423   -1.030327
O       1.928111   -1.176407    0.883251
C       0.807876   -0.343848    1.277440
C       1.358115    0.800207    2.128941
O       2.090005    0.302378    3.228802
H      -0.100181    2.204618    0.203689
H      -1.177074    1.494843   -1.001325
H      -1.513112    1.266509    0.716658
H      -0.530477   -0.790136   -0.326225
H       1.055088   -0.207088   -2.053779
H       1.802363    1.034260   -1.049897
H       3.702272   -2.172715   -0.398575
H       0.170269   -0.970000    1.908815
H       1.972575    1.471067    1.505686
H       0.533009    1.391567    2.538220
H       2.717638   -0.336033    2.869498
