23

C       0.161903    1.609053    0.231103
C       0.151183    0.091406    0.136193
C       1.066694   -0.608609   -0.908859
C       1.350151   -1.721982    0.136846
C       2.755485   -2.308440    0.229720
C       2.904814   -3.296164    1.361925
C       4.145301   -3.436277    2.133599
O       3.017376   -2.752558    2.682584
C       0.859651   -0.742428    1.240257
H       1.183683    1.987248    0.351737
H      -0.259587    2.069754   -0.669784
H      -0.424652    1.958799    1.088301
H      -0.878819   -0.263823    0.012954
H       0.630605   -0.900182   -1.868379
H       1.966450   -0.012589   -1.103591
H       0.623677   -2.535173    0.014464
H       3.007431   -2.815219   -0.712790
H       3.486281   -1.501366    0.364821
H       2.248258   -4.167790    1.307436
H       4.391319   -4.387557    2.603950
H       5.000536   -2.806385    1.890282
H       1.699827   -0.192550    1.677873
H       0.253967   -1.145642    2.055143
