19

C      -0.147563    1.605746   -0.079079
C      -0.007367    0.105035    0.006519
N       1.296340   -0.478222   -0.343585
C       0.795928   -0.615184    1.038372
C       1.594481    0.087263    2.085883
O       1.014073    0.175718    3.395206
C       2.219230   -0.582474    3.241197
C       2.155340   -2.060450    3.529927
H       0.772583    2.111769    0.219878
H      -0.373371    1.908536   -1.107135
H      -0.961348    1.956178    0.564350
H      -0.889134   -0.439848   -0.330762
H       1.185439   -1.351767   -0.849998
H       0.404556   -1.583406    1.340223
H       2.064774    1.007607    1.740131
H       3.097372   -0.086022    3.661266
H       1.255215   -2.519602    3.116306
H       3.032062   -2.568734    3.114104
H       2.150985   -2.231679    4.611494
