19

C      -0.323611    1.484805   -0.138207
C       0.007454    0.006707   -0.002027
C       0.820823   -0.325813    1.243488
O      -1.275008   -0.686992    0.056815
C      -1.302788   -1.958295   -0.365907
O      -0.353968   -2.568979   -0.796549
C      -2.695511   -2.547802   -0.248305
C      -3.070213   -3.348872   -1.488482
O      -4.183069   -3.387271   -1.940569
H       0.598574    2.067541   -0.219603
H      -0.927664    1.668153   -1.030644
H      -0.879690    1.840719    0.734584
H       0.530186   -0.358005   -0.890248
H       0.282732   -0.024120    2.147695
H       1.029907   -1.396661    1.292814
H       1.776019    0.207592    1.217877
H      -2.668350   -3.260173    0.588685
H      -3.454576   -1.795647   -0.033698
H      -2.225559   -3.909690   -1.937862
