25

C      -0.283563    1.820829   -0.483616
C      -0.163880    0.347647   -0.079188
C       0.745472   -0.479754   -0.991948
C       2.235927   -0.052393   -1.004731
C       3.008710   -1.308534   -1.461434
C       3.910869   -2.064077   -0.435959
C       3.066878   -3.352953   -0.652371
C       2.012317   -2.514681   -1.425715
C       0.808337   -1.978881   -0.632957
H       0.686047    2.327856   -0.446075
H      -0.669051    1.919903   -1.504802
H      -0.965117    2.360368    0.181666
H       0.211695    0.279332    0.951481
H      -1.164212   -0.104815   -0.067640
H       0.363776   -0.398651   -2.021298
H       2.412565    0.812266   -1.650840
H       2.543223    0.242341    0.007589
H       3.506798   -1.166190   -2.423310
H       4.973389   -2.135617   -0.681496
H       3.825681   -1.656856    0.576040
H       3.574164   -4.080252   -1.292102
H       2.716512   -3.874776    0.243046
H       1.698683   -2.920514   -2.391603
H       0.985427   -2.083112    0.446803
H      -0.124699   -2.506713   -0.854544
