22

C       0.571124    1.217426    0.294090
C       0.119300   -0.217057   -0.001399
C       0.571819   -0.712294   -1.375856
C       2.082661   -0.956093   -1.633504
N       1.849740   -2.370301   -2.099313
C       1.282874   -3.075414   -0.938264
C       0.388645   -2.201441   -1.724373
O       0.119987    0.131099   -2.429023
C      -1.280017    0.231464   -2.588112
H       1.663581    1.297599    0.283823
H       0.186114    1.915077   -0.454290
H       0.223245    1.542695    1.278853
H       0.513249   -0.894702    0.763227
H      -0.973012   -0.290735    0.072072
H       2.449373   -0.339183   -2.453966
H       2.757939   -0.881898   -0.774453
H       1.193862   -4.146841   -1.092648
H       1.600657   -2.791429    0.062864
H      -0.402394   -2.598634   -2.352492
H      -1.449308    0.759136   -3.529969
H      -1.766389   -0.752242   -2.648970
H      -1.757322    0.802628   -1.779795
