18

C      -0.184101    1.535535   -0.000244
C       0.023839    0.027284    0.013360
C       1.160688   -0.596249   -0.844033
C       2.156189   -0.213031    0.271581
C       0.920618   -0.575895    1.155059
C       0.776034   -2.071172    0.799595
O       0.962156   -2.014699   -0.631593
C       1.775799   -2.946144    1.426656
N       2.550883   -3.629128    1.944156
H       0.738702    2.102826    0.144224
H      -0.621096    1.850316   -0.953768
H      -0.879697    1.830321    0.792399
H      -0.938005   -0.477849   -0.126873
H       1.310865   -0.413858   -1.906551
H       3.056761   -0.822029    0.367857
H       2.404857    0.845731    0.304076
H       0.826659   -0.301772    2.204600
H      -0.220631   -2.464609    1.031510
