21

C      -0.035007    1.529626    0.048434
C      -0.020716    0.030867   -0.028343
C      -0.030164   -0.653053   -1.177593
C       0.007693   -2.164303   -1.251672
C       0.099437   -2.823405    0.151105
C      -0.813643   -2.034672    1.114885
C       0.038956   -0.757597    1.283189
C       1.435727   -1.372570    1.410259
C       1.463354   -2.540449    0.767444
H       0.847777    1.908660    0.580602
H      -0.052589    1.986499   -0.945228
H      -0.909189    1.891104    0.606119
H      -0.052626   -0.117934   -2.125392
H      -0.892376   -2.527007   -1.768923
H       0.854346   -2.483175   -1.877277
H      -0.141878   -3.888079    0.084623
H      -1.809214   -1.832282    0.709454
H      -0.913226   -2.563025    2.067893
H      -0.253580   -0.134592    2.132803
H       2.275793   -0.866113    1.871126
H       2.334111   -3.166109    0.607416
