15

O      -0.047993    1.305984   -0.024165
C       0.018691   -0.040308   -0.079629
C      -0.150838   -0.826975   -1.188871
N      -0.067872   -2.131441   -0.672906
C       0.212223   -3.477136   -1.124086
C       0.224406   -4.195305    0.255767
O       0.499546   -3.173292    1.242329
C       0.215317   -2.000761    0.639600
N       0.259580   -0.771674    1.072788
H       0.120556    1.544957    0.895211
H      -0.413288   -0.605522   -2.206649
H      -0.563364   -3.877430   -1.782381
H       1.178969   -3.537815   -1.640824
H      -0.754960   -4.633448    0.475062
H       0.994193   -4.962839    0.339480
