17

C      -0.347965    1.422603    0.446385
N      -0.267928   -0.012870    0.616293
C       0.912320   -0.676790    0.693574
O       2.014702   -0.156649    0.645773
C       0.763591   -2.181900    0.867390
C       1.805070   -3.012318    0.161301
C       0.100107   -2.664838    2.092626
O      -0.589688   -2.671179    0.839102
H       0.671089    1.811813    0.464274
H      -0.813008    1.687113   -0.510035
H      -0.924298    1.887051    1.254089
H      -1.099504   -0.583346    0.588739
H       2.799850   -2.661476    0.443358
H       1.698284   -4.068404    0.419469
H       1.707127   -2.907064   -0.923716
H       0.361718   -3.646985    2.483048
H      -0.270861   -1.950915    2.825806
