23

C       0.176590    1.714900    0.113057
C       0.131426    0.184356    0.154129
C      -1.268581   -0.365604   -0.158369
C      -1.456479   -1.881702    0.023577
C      -1.301759   -2.439341    1.484667
C      -2.602555   -3.259628    1.275752
C      -2.914379   -2.420526    0.007191
C      -0.550692   -2.664842   -0.903522
O      -0.915392   -3.457702   -1.735546
H       1.179915    2.089946    0.336840
H      -0.107729    2.092926   -0.875167
H      -0.513959    2.150615    0.843679
H       0.865081   -0.213954   -0.556206
H       0.446322   -0.164221    1.146213
H      -1.993999    0.130946    0.500013
H      -1.552637   -0.088502   -1.182985
H      -0.386646   -2.993753    1.715061
H      -1.412352   -1.641407    2.225238
H      -2.397806   -4.305847    1.036427
H      -3.334289   -3.226810    2.085399
H      -3.642622   -1.626330    0.191797
H      -3.196646   -2.969611   -0.891936
H       0.536200   -2.476256   -0.747598
