23

O      -0.135708    1.482279   -0.065213
C      -0.048706    0.085265   -0.019968
C      -0.466922   -0.657308    1.233755
C      -0.897389    0.077598    2.489913
C      -2.175801   -0.495641    3.130274
C      -3.485662   -0.071996    2.445117
C      -3.697294   -0.534827    0.993895
C      -2.690496    0.039837   -0.019719
C      -1.348973   -0.671246   -0.003869
H       0.588040    1.842005    0.458253
H       0.771612   -0.328006   -0.607168
H       0.072803   -1.581742    1.427180
H      -0.077572    0.032196    3.218161
H      -1.049262    1.140269    2.268193
H      -2.108540   -1.591929    3.156692
H      -2.222604   -0.169085    4.176896
H      -4.323766   -0.440727    3.050208
H      -3.554186    1.025154    2.473598
H      -3.676875   -1.632569    0.948375
H      -4.709515   -0.237868    0.691817
H      -3.108286   -0.037902   -1.030813
H      -2.548905    1.109310    0.164555
H      -1.342254   -1.605667   -0.559956
