20

C       0.116196    1.484861   -0.213975
C      -0.026873    0.001226    0.155386
C      -1.418518   -0.543921   -0.004489
C      -1.896771   -2.022009    0.090178
C      -3.206391   -1.212761   -0.059965
N      -2.601796   -0.241367    0.940246
C      -3.163420    1.112585    0.995579
C      -2.475105   -0.368199   -1.132196
O      -2.680634    0.281188   -2.112371
H       1.165299    1.790947   -0.168540
H      -0.252526    1.670824   -1.226479
H      -0.445071    2.127592    0.469883
H       0.629728   -0.598195   -0.487733
H       0.307518   -0.175580    1.184972
H      -1.617434   -2.693021   -0.723723
H      -1.767630   -2.457060    1.082576
H      -4.238591   -1.548071    0.021137
H      -4.155377    1.048081    1.453879
H      -2.535518    1.725314    1.647903
H      -3.262527    1.617599    0.023090
