8

N       0.068898   -1.122175   -0.004605
C      -0.003947    0.030984    0.002872
C      -0.084689    1.450685    0.011961
N      -1.154228    2.189375    0.029945
C      -0.609821    3.447966    0.030071
N       0.696918    3.487102    0.013401
O       1.062715    2.146839    0.001107
H      -1.200715    4.351709    0.042805
