19

O      -0.031690    1.378477   -0.052339
C       0.016737   -0.034710    0.006003
C       0.090864   -0.627098    1.463940
C      -1.411469   -0.222641    1.549277
C      -1.427058   -0.621172    0.041375
C      -1.249987   -2.188757   -0.076935
C      -1.206233   -2.855341    1.318326
C       0.191741   -2.193265    1.278697
O       0.187330   -2.469070   -0.162662
H       0.872686    1.701810    0.001671
H       0.708606   -0.432396   -0.733777
H       0.811749   -0.224723    2.179564
H      -2.073342   -0.720027    2.255925
H      -1.512630    0.855996    1.659076
H      -2.183807   -0.211446   -0.629705
H      -1.811115   -2.637552   -0.898243
H      -1.933454   -2.619346    2.092412
H      -1.107317   -3.935842    1.209444
H       1.043835   -2.648851    1.786308
