20

C      -0.039207    1.526991    0.036479
C       0.020450    0.020516    0.023797
C       0.581505   -0.940574   -1.054903
N       0.077589   -1.933727    0.008605
C       0.708801   -0.952939    1.014065
C      -1.134148   -1.004904    0.088710
C      -2.184991   -1.159235    1.195607
O      -3.243600   -1.213341    0.217279
C      -2.312889   -1.146861   -0.882751
H       0.965036    1.960066   -0.021458
H      -0.617382    1.905414   -0.813540
H      -0.510783    1.894744    0.954304
H       0.057657   -1.014918   -2.012033
H       1.665501   -0.973706   -1.197009
H       1.802018   -0.986940    1.021797
H       0.306198   -1.039082    2.027244
H      -2.106092   -2.088750    1.774293
H      -2.302937   -0.311810    1.883606
H      -2.513686   -0.291428   -1.541000
H      -2.306210   -2.069395   -1.477719
