18

N       0.083902    1.400647   -0.228721
C       0.097966    0.175602    0.091305
C      -1.177157   -0.612198    0.242146
C      -2.393860    0.126808   -0.287743
O      -3.450204    0.161871    0.286454
O       1.172957   -0.620406    0.361144
C       2.441687   -0.011645    0.368572
C       3.589582   -0.914621    0.061013
C       3.180742    0.151881   -0.933133
H       1.019535    1.797354   -0.301476
H      -1.074334   -1.556865   -0.310127
H      -1.344163   -0.878067    1.290500
H      -2.245556    0.615349   -1.271533
H       2.553176    0.745341    1.140764
H       4.506354   -0.784732    0.623951
H       3.344586   -1.941638   -0.183298
H       2.670156   -0.176937   -1.830840
H       3.814051    1.022620   -1.061699
