16

C       0.068283    1.537190    0.199242
C      -0.006776    0.036291   -0.002957
O       0.666290   -0.584210    1.110255
C       0.708900   -1.925746    1.114156
N       0.194547   -2.634487    0.203396
C       1.460673   -2.368328    2.369918
C       1.572872   -3.815922    2.486697
N       1.649733   -4.966144    2.559037
H       1.107370    1.876771    0.232502
H      -0.433901    2.046244   -0.628557
H      -0.420775    1.831984    1.132002
H      -1.038853   -0.326507   -0.036762
H       0.479729   -0.282159   -0.930219
H       0.328329   -3.628172    0.380045
H       2.459915   -1.919162    2.362318
H       0.949241   -1.964557    3.250662
