16

C       0.016741    1.515936    0.173702
C       0.110861   -0.003854    0.043220
C       0.631714   -0.468818   -1.338965
C       2.002501   -0.026782   -1.587061
N       3.100656    0.280655   -1.781995
C       0.442278   -2.003222   -1.495339
N       1.514144   -2.702804   -1.936932
O      -0.634328   -2.500457   -1.238928
H       0.994118    1.993154    0.050246
H      -0.660774    1.937263   -0.577052
H      -0.367149    1.790545    1.160211
H       0.765009   -0.413451    0.820799
H      -0.868103   -0.472718    0.166858
H      -0.005735   -0.021293   -2.112853
H       2.405590   -2.271437   -2.114823
H       1.415420   -3.698729   -2.047717
