17

C      -0.090017    1.465520    0.010108
O       1.145289    0.737058   -0.003938
C      -0.083630    0.001891    0.003210
C      -0.337016   -0.856671    1.224507
N      -1.736775   -1.297085    1.389151
C      -0.759224   -2.206903    0.759070
C      -0.772323   -2.199793   -0.761520
N      -1.760510   -1.284201   -1.366132
C      -0.358086   -0.845235   -1.221517
H      -0.308060    1.998667    0.934149
H      -0.323902    2.007266   -0.905015
H       0.290416   -0.687735    2.093829
H      -1.873239   -1.582399    2.356773
H      -0.461407   -3.113791    1.273266
H      -0.483481   -3.101809   -1.289228
H      -1.913648   -1.560468   -2.333885
H       0.254289   -0.668126   -2.099901
