20

C       0.549762    0.341898   -0.704777
C      -0.273863    0.417407    0.565296
O       0.014836    1.147434    1.484820
C      -1.534432   -0.451996    0.630755
N      -1.390683   -1.724832   -0.048422
C      -0.690451   -2.850835    0.643564
C      -1.895352   -3.756437    0.379377
C      -3.123150   -3.155300    1.016556
C      -2.576544   -2.555992   -0.253662
H       1.302467    1.131264   -0.698148
H       1.039732   -0.634883   -0.774223
H      -0.089905    0.424025   -1.589033
H      -1.830712   -0.518983    1.689851
H      -2.323257    0.112341    0.111926
H       0.226688   -3.141610    0.121075
H      -0.455914   -2.668681    1.701317
H      -1.850635   -4.777213    0.025923
H      -4.034949   -3.731569    0.893512
H      -3.050514   -2.628639    1.964528
H      -3.156204   -2.472208   -1.167039
