14

O      -0.465049    0.503609    0.783817
C      -0.039063    1.126634   -0.142847
C       1.318435    1.863854   -0.132658
O       1.284310    2.777118   -1.196222
C       2.547775    3.381840   -1.487028
C       2.419160    4.214230   -2.670572
C       2.339971    4.909024   -3.646002
C       1.587994    2.498091    1.170082
N       1.823113    3.027330    2.169347
H      -0.553737    1.223320   -1.120161
H       2.093461    1.091238   -0.293334
H       2.882168    3.984734   -0.630493
H       3.303616    2.597305   -1.652603
H       2.266030    5.525281   -4.508217
