19

C      -0.031682    1.547933   -0.128205
C       1.284698    0.825661    0.036001
C       0.005939    0.047754    0.043681
C      -0.177185   -0.657313    1.430995
C       1.073089   -1.532879    1.561003
C       2.211000   -0.840650    1.554178
C       2.007149    0.671490    1.417888
C       1.034792    1.102112    2.502603
C      -0.103035    0.409930    2.509438
H      -0.402525    2.165524    0.680143
H      -0.263796    1.919684   -1.121758
H       1.944753    0.757246   -0.822275
H      -0.244291   -0.574411   -0.809130
H      -1.103005   -1.232400    1.471299
H       0.998692   -2.611566    1.628556
H       3.203680   -1.270196    1.615326
H       2.943824    1.229420    1.446998
H       1.262654    1.929186    3.164554
H      -0.936445    0.591401    3.177758
