18

C       0.785666    0.597621   -0.071922
C       0.034855   -0.711277   -0.324651
C      -1.429006   -0.630269    0.168199
O      -2.114008    0.427143   -0.447292
C      -2.160302   -1.937676   -0.099912
O      -3.102925   -1.973438   -0.855507
C      -1.666367   -3.245508    0.545848
C      -1.062697   -3.102413    1.865285
N      -0.588392   -2.979603    2.911659
H       1.802594    0.543051   -0.470827
H       0.268320    1.431859   -0.550801
H       0.855111    0.808776    1.000423
H       0.021649   -0.936766   -1.398323
H       0.547536   -1.537507    0.181598
H      -1.414731   -0.474912    1.259471
H      -2.813934    0.019378   -0.979949
H      -2.516690   -3.931421    0.588130
H      -0.930274   -3.690291   -0.136252
