19

C      -0.231463    1.533523    0.009199
C      -0.000601    0.029007    0.033119
C       0.648189   -0.579668   -1.222380
O       1.955845   -0.013359   -1.334042
C       1.777715   -1.131639   -0.460649
C       1.216933   -0.601681    0.860513
C       2.158029    0.236875    1.712747
C       1.564599    0.921534    2.931991
O       3.335717    0.313726    1.449696
H       0.692600    2.063130   -0.237065
H      -0.978575    1.786339   -0.751498
H      -0.606426    1.905006    0.967680
H      -0.923223   -0.499574    0.291496
H       0.170217   -0.920061   -2.133880
H       2.396204   -2.002966   -0.635450
H       0.824896   -1.409952    1.489737
H       2.367937    1.302677    3.564009
H       0.930209    1.757862    2.619752
H       0.930172    0.234654    3.502393
