9

O       0.109030    1.356739   -0.071833
C       0.069201    0.012280   -0.089503
C      -0.030283   -0.820025   -1.180682
N      -0.026284   -2.055588   -0.610577
N       0.067653   -1.999557    0.720232
N       0.126181   -0.730732    1.041761
H       0.180652    1.618244    0.855235
H      -0.098751   -0.649259   -2.239707
H      -0.083323   -2.954861   -1.061037
