19

C      -0.863847   -0.432424   -1.121583
C      -1.052852    0.944867   -0.587623
N      -0.090637    0.028824    0.024374
C      -0.410811   -0.498721    1.308508
C      -0.353028   -1.956116    1.627940
C      -1.643331   -1.216818    1.916319
C      -1.482067   -0.404157    3.203644
C      -0.246589    0.330543    2.583779
H      -1.671651   -1.140180   -0.944596
H      -0.299437   -0.602774   -2.033728
H      -0.626451    1.800728   -1.102216
H      -1.979292    1.139016   -0.050819
H      -0.389273   -2.610674    0.762155
H       0.266000   -2.331221    2.442253
H      -2.582947   -1.528175    1.474828
H      -2.315140    0.275412    3.396897
H      -1.292198   -0.988335    4.110879
H       0.713012    0.229385    3.100996
H      -0.443377    1.392166    2.415504
