13

O       0.101535    1.360342   -0.066022
C       0.062987    0.002042   -0.000341
C       0.011184   -0.834194   -1.095117
N      -0.017843   -2.177914   -0.661664
C       0.016939   -2.131266    0.685253
C       0.066458   -0.844970    1.151509
N       0.099325   -0.888711    2.544374
C       0.068218   -2.152313    2.809820
O       0.016045   -3.008766    1.711169
H       0.133626    1.701805    0.832902
H      -0.007627   -0.597077   -2.144504
H      -0.055697   -2.984197   -1.257563
H       0.077269   -2.642225    3.769586
