13

C      -0.017174    1.422135   -0.029284
N      -0.011993   -0.022693    0.016915
N      -0.047161   -0.755731   -1.130355
C       0.022519   -2.015769   -0.721262
C       0.110899   -2.126775    0.683600
C       0.088399   -0.812818    1.109240
O       0.145503   -0.225742    2.327458
H       0.999206    1.825005   -0.100533
H      -0.584440    1.729493   -0.908204
H      -0.490250    1.812703    0.873422
H       0.002532   -2.813734   -1.449586
H       0.174515   -3.014398    1.291629
H       0.157901   -0.914340    2.998985
