18

O      -0.065709    0.127442   -0.991506
C       0.419556    0.661669   -0.027721
C       1.194522    1.966706   -0.071182
C       0.923672    2.869386   -1.258203
C       0.789862    4.131541   -0.856903
C       0.935832    4.239152    0.640965
C      -0.358364    4.477867    1.460778
C      -0.445668    2.938849    1.579216
N       0.972013    2.814932    1.113935
H       0.372278    0.194132    0.981512
H       2.252193    1.636683   -0.082891
H       0.879558    2.498844   -2.273828
H       0.624261    4.989703   -1.498172
H       1.806464    4.842616    0.929007
H      -0.171346    4.976772    2.413387
H      -1.179544    4.977757    0.945179
H      -0.617696    2.522868    2.575979
H      -1.177447    2.505194    0.884689
