25

C      -0.156296    1.672330    0.012579
C       0.016548    0.149681    0.002726
C      -1.330004   -0.585633    0.011627
C      -1.286785   -2.134256    0.002890
C      -0.596544   -2.660696   -1.267314
C      -0.572471   -2.674242    1.253956
C      -2.772864   -2.611865    0.014513
C      -2.957777   -4.058052    0.008407
C      -3.105563   -5.251745    0.003300
H       0.811446    2.183518    0.006096
H      -0.719037    2.013152   -0.863726
H      -0.702172    2.003634    0.903088
H       0.596163   -0.140122   -0.881465
H       0.612917   -0.149570    0.872511
H      -1.897010   -0.260804    0.895970
H      -1.913754   -0.251370   -0.858187
H       0.462931   -2.389944   -1.289369
H      -0.663095   -3.751216   -1.318930
H      -1.066243   -2.253097   -2.170085
H      -1.024816   -2.276427    2.169857
H      -0.638127   -3.765261    1.295104
H       0.487258   -2.403626    1.258698
H      -3.270307   -2.192645    0.899134
H      -3.287104   -2.183111   -0.855820
H      -3.244868   -6.304141   -0.001479
