21

C      -0.116015    1.558665    0.069594
C      -0.024565    0.025640   -0.046500
O       0.630449   -0.338191   -1.232541
C       0.716082   -0.568216    1.154709
O       1.817995   -1.051724    0.979740
C       0.044393   -0.571511    2.515497
C      -0.729388   -1.897001    2.687937
C       1.078183   -0.379280    3.628148
O       0.371252   -0.303546    4.856546
H       0.885372    1.993593    0.144529
H      -0.589281    1.948065   -0.834885
H      -0.707846    1.875590    0.933243
H      -1.046879   -0.385875   -0.049710
H       1.466728   -0.739575   -0.944761
H      -0.674957    0.253332    2.568365
H      -0.050498   -2.750133    2.590779
H      -1.180554   -1.920856    3.681440
H      -1.521105   -2.002455    1.940674
H       1.785907   -1.218809    3.611876
H       1.654521    0.540205    3.442642
H       1.012915   -0.280478    5.571986
