21

O      -0.117144    1.440649    0.039658
C       0.027317    0.026923    0.018479
C       0.792280   -0.497990    1.240384
C       0.837755   -2.033426    1.259369
C      -0.577823   -2.632327    1.204276
C      -1.346042   -2.076256    0.020740
C      -1.479991   -2.866228   -1.214011
O      -2.572623   -2.739453   -0.298678
C      -1.385259   -0.561330   -0.033387
H       0.762701    1.829090    0.080002
H       0.568363   -0.284603   -0.892512
H       1.810344   -0.087626    1.245057
H       0.292387   -0.123066    2.142978
H       1.417672   -2.392529    0.398651
H       1.360246   -2.385198    2.154736
H      -0.544521   -3.724510    1.149223
H      -1.120984   -2.374720    2.123645
H      -1.611933   -2.361070   -2.170380
H      -1.035289   -3.859267   -1.274637
H      -1.947244   -0.181151    0.829572
H      -1.904535   -0.220597   -0.933243
