18

C       0.782858    0.984888    0.236675
C      -0.310223   -0.043752    0.072685
O      -1.123764   -0.288376    0.932792
C      -0.337043   -0.832093   -1.246280
C       0.037718   -2.293999   -0.990289
C       0.097349   -3.281125   -2.178136
O       1.510882   -3.537984   -1.900318
C       1.517582   -2.614230   -0.878423
N       2.457042   -2.188121   -0.164529
H       1.747843    0.463955    0.205032
H       0.770831    1.700586   -0.593129
H       0.671010    1.507798    1.187083
H      -1.363372   -0.789235   -1.627252
H       0.329479   -0.391571   -1.994057
H      -0.540308   -2.672315   -0.143610
H      -0.493670   -4.195041   -2.088592
H      -0.026498   -2.839767   -3.170802
H       3.345302   -2.631748   -0.403342
