23

C      -0.051320    1.605099    0.004489
C      -0.030421    0.073710   -0.033943
C       0.749538   -0.510715   -1.215869
C       2.259302   -0.205588   -1.231070
C       2.829399   -1.258136   -2.190301
C       2.063332   -2.555781   -1.822080
C       0.680034   -2.060600   -1.293793
C       1.920781   -3.475478   -3.008916
O       2.379863   -4.584119   -3.101615
H       0.957070    2.019116    0.105341
H      -0.488257    2.017387   -0.912081
H      -0.644694    1.970593    0.848216
H       0.400468   -0.313345    0.899960
H      -1.061907   -0.300248   -0.069106
H       0.321057   -0.102144   -2.142177
H       2.490946    0.817254   -1.541013
H       2.679487   -0.347685   -0.226033
H       2.601560   -0.971909   -3.226187
H       3.912660   -1.384926   -2.120670
H       2.602386   -3.103214   -1.044650
H       0.487351   -2.493602   -0.307358
H      -0.142499   -2.386583   -1.940395
H       1.328029   -3.028317   -3.845825
