16

O      -0.469062    1.236895    0.088395
C      -0.075756   -0.145288    0.034796
C       0.741448   -0.407608   -1.150696
C       1.437251   -0.598171   -2.112061
C       0.624779   -0.607039    1.312034
C       1.483113    0.348210    2.124147
C       0.152044   -0.122404    2.659903
O      -0.937109    0.732199    2.802719
H       0.298372    1.767436   -0.153340
H      -1.023062   -0.691129   -0.057282
H       2.041326   -0.774496   -2.968021
H       0.962711   -1.637260    1.245270
H       2.405233   -0.021521    2.559155
H       1.527789    1.383420    1.800350
H       0.168860   -0.839484    3.474809
H      -1.011144    1.243323    1.983819
