14

N       0.068078   -1.139867   -0.337305
C       0.009029    0.002440   -0.159616
C      -0.011292    1.407144    0.061285
N      -1.190454    2.073725    0.124408
N      -0.767299    3.311615    0.335365
C      -1.144801    4.719640    0.542928
C       0.414242    4.986978    0.640133
C       0.561885    3.487466    0.409669
C       1.134165    2.245508    0.234230
H      -1.652071    5.167866   -0.313796
H      -1.716287    4.890539    1.457430
H       0.812637    5.629557   -0.147076
H       0.749493    5.351412    1.612884
H       2.166112    1.940604    0.222551
