17

O       0.397124    1.309353    0.071608
C       0.149418   -0.064776   -0.127774
C      -1.327161   -0.420693   -0.188488
C      -2.117821    0.107944   -1.365619
O      -2.016479    1.539082   -1.467799
C      -2.897549    2.275361   -0.741375
O      -2.834706    3.463956   -0.694224
C      -1.823755   -1.633328    0.479608
O      -2.034449   -0.345925    1.057961
H      -0.026996    1.801026   -0.640927
H       0.638006   -0.445274   -1.041619
H       0.598096   -0.582140    0.725162
H      -1.723418   -0.277566   -2.309683
H      -3.168344   -0.189409   -1.274995
H      -3.654718    1.654044   -0.231577
H      -2.715417   -2.135541    0.105514
H      -1.120778   -2.275654    1.007393
