21

C       0.325445    1.609354    0.006086
C      -0.001954    0.109478    0.012978
C       0.564698   -0.577358   -1.236736
C       0.519689   -0.601984    1.279653
C      -0.118331   -0.161354    2.577455
C       0.665064   -0.078665    3.834741
O       0.287224    1.099632    3.148075
C      -1.581971   -0.422223    2.778802
O      -2.245054   -1.159901    2.095450
H       1.409871    1.772589    0.024849
H      -0.064932    2.082468   -0.900994
H      -0.098478    2.128496    0.868912
H      -1.091855   -0.009114   -0.005775
H       1.659580   -0.513041   -1.258751
H       0.290683   -1.636928   -1.272059
H       0.188174   -0.102643   -2.148475
H       0.338683   -1.678869    1.181786
H       1.604571   -0.461776    1.358494
H       0.181976   -0.237997    4.798509
H       1.720841   -0.341888    3.790636
H      -2.008814    0.137565    3.641124
