22

C       0.326731    1.550810    0.256736
C       0.047160    0.054117    0.094647
C       0.470297   -0.464274   -1.268331
O       1.906856   -0.354086   -1.492490
C       2.061856   -1.778308   -1.646632
C       0.562453   -1.980326   -1.460335
N      -0.127336   -2.967392   -0.640954
C      -0.348066   -2.947429   -2.105569
C      -1.732921   -2.579133   -2.578253
H       1.389755    1.759301    0.105532
H      -0.237694    2.142140   -0.473194
H       0.048331    1.899044    1.255775
H       0.572450   -0.518905    0.867260
H      -1.021099   -0.158518    0.225244
H      -0.075034    0.061204   -2.066314
H       2.470744   -2.048188   -2.629360
H       2.699401   -2.213596   -0.863572
H       0.505586   -3.719440   -0.377678
H       0.138759   -3.734578   -2.682229
H      -2.157945   -1.791479   -1.950357
H      -1.709870   -2.222790   -3.613878
H      -2.403470   -3.443655   -2.532332
