23

C       0.040042    1.604176    0.012455
C       0.051068    0.073874    0.029204
C       0.742197   -0.566825   -1.196001
C       1.244917   -1.965162   -0.738794
C       0.192595   -3.055243   -0.975869
O       2.472371   -2.329781   -1.373693
C       1.499172   -1.791810    0.752781
C       2.285876   -0.581535    1.184289
C       0.777888   -0.548745    1.220286
H       1.061069    2.000897    0.008386
H      -0.474630    1.989111   -0.874669
H      -0.470498    2.006323    0.894115
H      -0.990451   -0.274868    0.063385
H       0.078120   -0.627213   -2.064378
H       1.612327    0.025128   -1.497934
H      -0.015397   -3.166741   -2.047233
H       0.547345   -4.017444   -0.594647
H      -0.751533   -2.811864   -0.478143
H       2.282404   -2.504773   -2.301631
H       1.547313   -2.688603    1.361078
H       2.798756   -0.649416    2.137338
H       2.825729   -0.011285    0.436615
H       0.291092   -0.515627    2.189637
