17

C       2.643901   -1.171555    1.334261
C       2.688767   -0.256653    0.113372
C       2.845562    1.201239    0.438801
O       2.758172    1.991683   -0.729466
C       3.877506    2.630409   -1.158150
O       3.879619    3.340881   -2.114657
N       2.981165    1.658834    1.599193
C       3.062450    3.078089    1.885023
H       2.524087   -2.212667    1.021922
H       3.561067   -1.087283    1.921887
H       1.810874   -0.906918    1.989997
H       3.509111   -0.539173   -0.561228
H       1.779372   -0.357120   -0.493277
H       4.759601    2.403759   -0.532808
H       2.369321    3.302437    2.701915
H       4.067356    3.314967    2.251584
H       2.830263    3.734676    1.038461
