15

C      -0.026559    1.417251    0.261476
C      -0.593407    0.126706   -0.274480
O      -1.259145    0.007981   -1.266926
O      -0.231180   -0.897202    0.548407
C      -0.608259   -2.192283    0.305603
N      -0.182402   -3.080310    1.192555
N      -0.678715   -4.245809    0.732475
C      -1.395535   -4.109406   -0.406012
C      -1.379011   -2.768670   -0.730080
H       1.063127    1.349581    0.324376
H      -0.313757    2.237346   -0.395070
H      -0.399124    1.597580    1.273720
H      -0.486176   -5.086671    1.248118
H      -1.856220   -4.953747   -0.894091
H      -1.838380   -2.277451   -1.565431
