23

C      -0.058151    1.575197   -0.130666
C       0.052627    0.064270    0.017240
C       1.048442   -0.709724   -0.894975
C       1.331946   -1.652314    0.285735
O       2.669090   -2.064565    0.420778
C       0.761311   -0.572825    1.265809
C       1.857972    0.298618    1.880725
C      -0.142683   -1.146647    2.345801
O       0.650415   -2.046785    3.120364
H       0.917798    2.063171   -0.049012
H      -0.474888    1.833394   -1.110692
H      -0.715197    2.010107    0.631071
H      -0.946508   -0.377337   -0.082637
H       0.670328   -1.146662   -1.822003
H       1.933716   -0.108735   -1.123462
H       0.654788   -2.519572    0.261661
H       2.727223   -2.558319    1.246548
H       2.586693    0.630296    1.137615
H       1.425908    1.185453    2.357517
H       2.398283   -0.264233    2.645430
H      -0.561647   -0.346309    2.977386
H      -0.986564   -1.679689    1.879535
H       0.097705   -2.426657    3.809149
