21

C       0.298069    1.518387   -0.422124
C       0.028914    0.089246    0.021028
O       0.507324   -0.893788   -0.934412
C       1.220525   -1.621879    0.095577
C       0.917553   -3.096600    0.091111
C       2.695284   -1.135832    0.204785
C       2.286366   -0.264073    1.433949
O       2.750946    1.053408    1.579460
C       0.787558   -0.587419    1.186990
H       1.333226    1.651348   -0.752112
H      -0.337342    1.768377   -1.277676
H       0.081450    2.226553    0.383906
H      -1.054758   -0.034024    0.161187
H       1.265442   -3.549635   -0.844236
H       1.423260   -3.601947    0.920359
H      -0.158456   -3.275404    0.175342
H       3.454324   -1.895868    0.406747
H       2.989404   -0.564349   -0.679356
H       2.589966   -0.769241    2.356333
H       2.573853    1.532474    0.765447
H       0.184252   -0.828240    2.062814
