21

C      -0.311819    1.503331   -0.176748
C       0.107196    0.051528   -0.056031
O       1.228885   -0.341420   -0.907208
C       1.830260   -1.120915    0.174662
C       1.966708   -2.582841   -0.158021
C       3.014672   -0.434742    0.902212
C       2.857626    1.049988    0.884085
C       2.002524    0.252930    1.838897
C       0.830818   -0.516133    1.182220
H      -0.516649    1.747646   -1.224301
H      -1.234861    1.664707    0.391054
H       0.443920    2.193573    0.200650
H      -0.756594   -0.584627   -0.304032
H       2.680756   -2.715809   -0.978906
H       2.336035   -3.144314    0.706551
H       1.007869   -3.007520   -0.469252
H       3.951892   -0.925313    1.139270
H       3.658424    1.598991    1.370267
H       2.452559    1.528968    0.002481
H       2.082215    0.411635    2.907506
H       0.262910   -1.141498    1.871247
