19

C      -0.003114    1.582308    0.047382
C       1.336916    2.260263   -0.077894
C       2.478974    1.589295   -0.228911
C       2.501588    0.089377   -0.290241
C       2.231334   -0.723436    0.987887
C       0.709873   -0.720434    1.185489
C       1.366674   -1.715492    0.253245
C       1.215877   -0.597943   -0.846667
C       0.091547    0.052582    0.014222
H      -0.490164    1.894515    0.983053
H      -0.668290    1.941656   -0.752503
H       1.340136    3.347674   -0.049587
H       3.421398    2.125247   -0.310308
H       3.394363   -0.290631   -0.795064
H       2.902567   -0.903028    1.818502
H       0.275356   -0.910758    2.159323
H       1.356466   -2.794770    0.225062
H       1.091915   -0.743271   -1.917897
H      -0.877800   -0.390299   -0.236589
