18

C      -0.009539    1.503990   -0.034501
C       0.021779    0.013804    0.005801
C       0.574200   -1.044541   -0.927065
C      -0.697213   -1.850065   -0.648268
C      -0.717276   -2.080657    0.820867
C       0.659172   -1.922181    1.416393
C       1.173298   -0.860537    0.459767
O       2.463910   -0.353860    0.518317
N      -1.241892   -0.786378    0.260753
H       0.994753    1.893816   -0.228583
H      -0.678621    1.872207   -0.818578
H      -0.361685    1.910732    0.921277
H       1.143504   -0.956847   -1.841500
H      -1.323950   -2.352526   -1.376128
H      -1.473660   -2.706936    1.279733
H       0.630848   -1.569727    2.454336
H       1.243514   -2.847138    1.372795
H       2.532122    0.210453    1.296938
