19

C      -0.165268    1.300996    0.081485
O      -0.001994   -0.093204   -0.018201
C       0.640997   -0.650161    1.107750
C       0.818356   -2.153163    0.870706
C       1.707216   -2.427016   -0.353753
C       1.454581   -2.768021    2.118194
N       0.783294   -3.823723    2.662460
O       2.492670   -2.342915    2.591204
H       0.801637    1.820487    0.171563
H      -0.665083    1.638674   -0.829785
H      -0.783792    1.579063    0.949865
H       1.626356   -0.189287    1.273676
H       0.040328   -0.474177    2.016644
H      -0.175767   -2.584022    0.700088
H       1.756803   -3.497375   -0.576258
H       1.308976   -1.905306   -1.225985
H       2.723512   -2.071781   -0.160670
H      -0.050936   -4.201942    2.250946
H       1.190574   -4.290985    3.456342
