20

C       0.153673    1.522677   -0.036004
C       0.000080    0.012506    0.019960
O       0.468426   -0.514658   -1.223423
C       0.629402   -1.911753   -1.277437
C      -0.670716   -2.692851   -1.134009
C       1.523243   -2.291773   -2.499548
N       2.497703   -2.825218   -1.542108
C       1.822726   -2.451018   -0.410500
O       2.083055   -2.510125    0.763751
H       1.204657    1.798915   -0.158688
H      -0.410344    1.936305   -0.877232
H      -0.219647    1.975073    0.887631
H       0.578968   -0.412584    0.848593
H      -1.055537   -0.255864    0.173449
H      -1.411977   -2.326199   -1.851312
H      -0.500320   -3.757812   -1.317373
H      -1.080117   -2.592815   -0.125329
H       1.106567   -3.038728   -3.181746
H       1.866479   -1.414371   -3.053499
H       3.431896   -3.185852   -1.668687
