18

O       0.172239    1.460674    0.035152
C       0.029153    0.064743   -0.044449
C      -0.054017   -0.732464    1.278824
O      -1.365971   -1.231214    0.936339
C      -1.431551   -0.395656   -0.251312
C      -2.517658    0.663826   -0.118238
N      -3.792547    0.018130    0.137576
C      -4.884278    0.174602   -0.654981
O      -4.949477    0.895222   -1.629181
H       1.108730    1.678199    0.048954
H       0.722258   -0.370478   -0.773395
H       0.666989   -1.545484    1.420863
H      -0.068996   -0.090262    2.168480
H      -1.613404   -1.009958   -1.140893
H      -2.267108    1.358388    0.689733
H      -2.621146    1.238873   -1.040649
H      -3.824929   -0.646427    0.895327
H      -5.735885   -0.439900   -0.300763
