20

C       0.179636    1.473931    0.073394
C       0.376847   -0.039978   -0.030413
C       0.475591   -0.526582   -1.484024
C       0.615815   -2.030169   -1.579158
C       1.357907   -2.789867   -2.598001
C       2.613076   -2.078896   -3.099962
C       2.987774   -1.976555   -1.612458
O       3.897865   -1.526607   -0.989087
N       1.859118   -2.759176   -1.138903
H       1.014409    2.014299   -0.386489
H      -0.739594    1.791972   -0.431597
H       0.113434    1.793320    1.117666
H       1.286395   -0.336552    0.504128
H      -0.453976   -0.556893    0.466926
H      -0.431260   -0.239966   -2.033510
H       1.308488   -0.017904   -1.981072
H      -0.247052   -2.559998   -1.178142
H       0.985514   -3.721696   -3.007381
H       3.299281   -2.745137   -3.629523
H       2.505653   -1.151547   -3.667039
