20

C      -0.059097    1.596430   -0.194506
C      -0.048115    0.069815   -0.078663
C       0.713509   -0.598435   -1.226473
C       0.763783   -2.143309   -1.138899
C      -0.583347   -2.721842   -1.170117
N      -1.645566   -3.176932   -1.184965
C       1.648614   -2.714730   -2.242635
C       1.358257   -3.944935   -2.986400
O       1.141027   -2.652537   -3.567929
H       0.957864    2.004215   -0.187257
H      -0.538600    1.918447   -1.125106
H      -0.606389    2.050691    0.636602
H       0.405216   -0.224077    0.877554
H      -1.077881   -0.305743   -0.058348
H       0.270388   -0.325141   -2.190338
H       1.750158   -0.238952   -1.242651
H       1.212644   -2.426365   -0.176219
H       2.690870   -2.405361   -2.143455
H       2.181714   -4.514265   -3.414014
H       0.454933   -4.508430   -2.765047
