23

C       0.663348    0.477076   -0.739261
O       0.202744   -0.805214   -0.368334
C      -1.184331   -0.886255   -0.027223
C      -2.079564   -0.804154   -1.263876
C      -1.382901   -2.190091    0.746443
O      -1.235826   -3.308135   -0.109594
C      -0.358871   -4.336406    0.328193
C       1.100439   -4.072610   -0.039004
O       1.667832   -2.988249    0.664819
H       1.747470    0.407308   -0.853679
H       0.231881    0.814447   -1.690732
H       0.434455    1.224872    0.034679
H      -1.423326   -0.059081    0.662321
H      -1.860517   -1.639018   -1.932345
H      -3.131989   -0.862286   -0.968573
H      -1.939147    0.135966   -1.803707
H      -0.666428   -2.226597    1.573568
H      -2.399316   -2.185075    1.170717
H      -0.445485   -4.483736    1.414549
H      -0.697041   -5.254996   -0.167288
H       1.686616   -4.965681    0.214239
H       1.168677   -3.929911   -1.128834
H       1.289747   -2.174766    0.295330
