25

C      -0.066173    1.467947    0.237333
C       0.108528   -0.041056    0.037422
C       0.773658   -0.451403   -1.291271
C       2.219741    0.057179   -1.387784
C       0.688739   -1.979351   -1.467843
C       1.131382   -2.505127   -2.841033
C       0.937728   -3.996802   -2.965880
C       1.858367   -4.855171   -3.720379
O       1.893463   -4.824278   -2.292524
H       0.893270    1.990372    0.297627
H      -0.635291    1.912651   -0.587218
H      -0.609519    1.677404    1.164214
H       0.692099   -0.456546    0.870833
H      -0.877710   -0.519554    0.093068
H       0.195525    0.011284   -2.106661
H       2.272997    1.143905   -1.278282
H       2.840540   -0.389051   -0.601143
H       2.675653   -0.190873   -2.350551
H       1.290025   -2.471868   -0.692145
H      -0.349427   -2.293588   -1.293510
H       0.554745   -2.007151   -3.633278
H       2.187350   -2.278491   -3.021525
H      -0.092011   -4.344030   -2.851981
H       1.500887   -5.785208   -4.160881
H       2.718819   -4.408935   -4.218255
