20

C      -0.013184    1.538746    0.128149
C       0.012296    0.053044    0.012700
C       0.002890   -0.747990   -1.112033
N      -0.034109   -0.233656   -2.446177
C       0.034612   -2.118793   -0.688994
C       0.035149   -3.325567   -1.574036
C       0.063647   -2.104775    0.689925
N       0.100320   -3.115647    1.683286
N       0.053431   -0.788317    1.096311
H       0.904044    1.942093    0.576814
H      -0.113261    1.960654   -0.874152
H      -0.855327    1.893813    0.735719
H       0.835337   -0.425629   -2.936879
H      -0.765908   -0.685292   -2.987339
H       0.879331   -3.322865   -2.275315
H       0.103138   -4.244343   -0.982825
H      -0.876503   -3.397300   -2.181751
H       0.921231   -3.705627    1.594175
H      -0.710854   -3.723671    1.636297
H       0.069253   -0.517160    2.064593
