17

C       0.188607    1.388982    0.095806
O      -0.133758    0.028412   -0.140530
C       0.561864   -0.553421   -1.213902
C       2.008576   -0.668795   -0.916101
N       3.129214   -0.718116   -0.639754
C      -0.049996   -1.939315   -1.493031
C      -1.546506   -1.846016   -1.773592
O       0.676111   -2.430631   -2.608978
H       1.242686    1.511433    0.376270
H      -0.018253    2.006904   -0.790129
H      -0.444230    1.720824    0.920722
H       0.461112    0.052164   -2.129932
H       0.124512   -2.560967   -0.602828
H      -1.953429   -2.844086   -1.966651
H      -2.075413   -1.415328   -0.920929
H      -1.728970   -1.226607   -2.657571
H       0.477116   -3.365406   -2.714107
