21

C      -0.073184    1.514273    0.004834
C       0.024253   -0.018457    0.008907
C      -1.399224   -0.551636   -0.210586
C       1.125006   -0.623922   -0.961241
C       2.388638   -0.035868   -0.306416
C       2.188921   -0.044813    1.010480
C       0.789333   -0.639368    1.253316
C       0.864648   -2.107670    0.795308
C       1.064000   -2.098485   -0.521651
H       0.886919    2.006322    0.153687
H      -0.491796    1.861365   -0.946891
H      -0.755554    1.849217    0.794564
H      -1.798929   -0.175456   -1.159383
H      -1.453075   -1.639264   -0.226218
H      -2.062983   -0.187404    0.582035
H       1.005551   -0.435766   -2.029360
H       3.267986    0.281048   -0.850786
H       2.866703    0.263014    1.795261
H       0.358296   -0.465618    2.240519
H       0.798334   -2.959075    1.459190
H       1.198955   -2.940605   -1.186969
