16

N       0.049537   -1.162779    0.065423
C       0.083829   -0.006835    0.055081
C       0.093340    1.433696    0.058660
C       0.507278    2.245054    1.264896
C       1.624044    1.526674    2.040708
C       2.482600    1.620910    0.760327
C       3.916304    1.879689    0.641856
O       3.340909    0.622814    0.254662
C       1.358622    2.273650   -0.008402
H      -0.730363    1.866319   -0.502084
H      -0.141210    3.016787    1.657273
H       2.027262    2.116252    2.866544
H       1.390273    0.517986    2.390103
H       4.294368    2.491181   -0.176844
H       4.544025    1.853793    1.531739
H       1.456458    3.041906   -0.765583
