16

C      -0.111886    1.574012    0.017084
C       0.025859    0.042503   -0.016552
C       0.805720   -0.504976   -1.231616
C       1.940772   -1.365717   -0.663491
O       2.750600   -1.999984   -1.285672
C       1.840984   -1.258502    0.831349
C       0.790883   -0.490460    1.168219
C       2.746879   -1.900343    1.718028
N       3.491352   -2.427765    2.429991
H       0.870972    2.055469   -0.009394
H      -0.686416    1.924163   -0.845225
H      -0.627644    1.905194    0.923854
H      -0.985991   -0.384834    0.012321
H       0.194445   -1.110423   -1.906032
H       1.244778    0.296214   -1.834926
H       0.501879   -0.256818    2.187583
