16

C       0.025202    1.457363    0.037011
N      -0.016143    0.009923   -0.012111
C      -0.065006   -0.774324   -1.160900
C      -0.028028   -2.088510   -0.792872
C       0.052722   -2.137827    0.641890
C       0.107587   -3.234203    1.524788
C       0.156598   -4.134132    2.328792
C       0.061092   -0.815643    1.063072
O       0.128903   -0.288662    2.302559
H       1.048930    1.836171   -0.060424
H      -0.580971    1.864423   -0.775333
H      -0.383293    1.798404    0.989337
H      -0.126434   -0.306656   -2.129604
H      -0.063255   -2.941320   -1.451508
H       0.199574   -4.941102    3.016664
H       0.146623   -1.029518    2.922752
