15

O      -0.675445    1.100830   -0.551234
C       0.320753    0.923321    0.111624
C       1.469347    1.853517    0.136398
N       2.605943    1.552399    0.978023
C       3.208419    2.664799    1.123796
N       2.657879    3.806498    0.420559
C       3.002106    3.462015   -1.050882
C       1.693673    2.713697   -1.161202
C       1.252449    3.348409    0.110036
H       0.444877    0.038411    0.769462
H       4.144777    2.781686    1.659554
H       2.998811    4.385961   -1.631162
H       3.949311    2.931165   -1.189111
H       1.115822    2.461975   -2.040088
H       0.364876    3.885876    0.418562
