21

O       0.427740    1.190855   -0.253137
C       0.173388   -0.156681    0.008517
C       0.316448   -0.728911    1.447837
C      -0.956286   -1.582887    1.184198
C      -1.317538   -0.618649    0.014531
O      -2.041622    0.512947    0.512221
C      -1.952335   -1.108775   -1.258133
C      -1.780520   -2.508685   -1.782169
C      -3.114581   -2.080389   -1.224795
H      -0.321582    1.674668    0.118819
H       0.752437   -0.749270   -0.706686
H       1.241720   -1.252863    1.695362
H       0.132018    0.049233    2.191844
H      -0.715073   -2.593924    0.846663
H      -1.694134   -1.640694    1.986989
H      -2.980042    0.304272    0.464268
H      -2.008713   -0.327609   -2.012426
H      -1.687817   -2.634643   -2.854991
H      -1.195688   -3.214886   -1.203692
H      -3.403652   -2.490626   -0.262208
H      -3.940568   -1.927285   -1.910318
