18

C      -0.038947    1.595418   -0.013254
C      -0.022985    0.095687    0.026526
C      -0.852073   -0.815449   -0.879912
O      -1.037048   -1.781343    0.194500
C      -0.341313   -0.925527    1.086379
C       1.113124   -0.760049    0.634650
C       1.853889   -1.858050   -0.111955
C       1.914477   -0.028472    1.583334
N       2.562565    0.550681    2.348248
H       0.474318    1.967761   -0.907315
H      -1.067180    1.971532   -0.034348
H       0.463558    2.022052    0.857997
H      -1.813349   -0.367236   -1.153003
H      -0.377842   -1.251935   -1.764883
H      -0.665458   -0.870005    2.119257
H       1.139209   -2.545640   -0.567234
H       2.502662   -1.444656   -0.889683
H       2.476153   -2.431500    0.580176
