20

C      -0.016869    1.510487    0.013278
C       1.366485    2.186362    0.008485
C       2.231606    1.888588    1.248119
C       2.888652    0.524082    1.171238
O       2.851656   -0.322520    2.326801
C       2.097502   -0.712514    1.172423
C       0.583312   -0.687757    1.250589
C      -0.050719   -0.028781    0.010608
H      -0.574058    1.867806    0.891031
H      -0.574784    1.866591   -0.861636
H       1.917362    1.897635   -0.897415
H       1.212595    3.269408   -0.065428
H       3.008665    2.654153    1.352654
H       1.621027    1.939590    2.155801
H       3.845702    0.503158    0.646122
H       2.517168   -1.573391    0.648113
H       0.214011   -1.713996    1.356841
H       0.281885   -0.153538    2.157807
H      -1.098610   -0.343093   -0.061966
H       0.441523   -0.409157   -0.895204
