19

C       0.047551    1.282945    0.221058
O       0.015822   -0.065888   -0.204748
C      -1.245960   -0.661187   -0.068027
C      -1.400171   -2.076945   -0.587457
C      -0.991198   -3.029367    0.541117
C      -0.541667   -2.170025    1.724616
C      -1.687817   -1.212580    1.312867
O      -2.266649   -0.312468    2.190081
C      -2.371023   -2.425663    0.522506
H       1.061337    1.652710    0.049093
H      -0.658713    1.901717   -0.354296
H      -0.198324    1.383683    1.286327
H      -2.036389   -0.007209   -0.468025
H      -1.435005   -2.396380   -1.620032
H      -0.716901   -4.053789    0.328211
H      -0.763848   -2.666829    2.675788
H       0.472195   -1.759111    1.731175
H      -2.402755   -0.751210    3.036791
H      -3.365620   -2.843939    0.491153
