18

O       0.419210    1.052588   -0.685994
C       0.113032   -0.179876   -0.045989
C       0.598376   -0.280369    1.379210
C      -0.334671   -0.751127    2.206468
C      -1.641192   -1.043264    1.508803
O      -2.772150   -0.496551    2.174533
C      -1.387666   -0.511818    0.084919
C      -2.408845    0.286938   -0.640857
N      -2.140524   -1.111005   -1.022180
H       0.064856    1.758776   -0.133597
H       0.608731   -0.930176   -0.677116
H       1.614747   -0.010441    1.644910
H      -0.214700   -0.928791    3.269781
H      -1.847893   -2.118560    1.466414
H      -2.610688    0.446801    2.289589
H      -3.375897    0.448840   -0.174980
H      -2.053517    1.078870   -1.293443
H      -1.559156   -1.124082   -1.858701
