21

C      -0.050597    2.539657    2.776828
C       0.152968    1.668564    1.526407
C       1.124863    2.299367    0.615611
N       1.872388    2.803236   -0.107027
N       0.669316    0.360795    1.925611
C      -0.259094   -0.747955    2.208488
C      -1.767256   -0.637077    2.134712
C       0.623725   -0.781940    1.000401
C       0.105436   -0.690915   -0.419467
H       0.884930    2.614541    3.334744
H      -0.387553    3.542050    2.500922
H      -0.805006    2.080602    3.420686
H      -0.798778    1.627351    0.975273
H       0.069925   -1.329642    3.069288
H      -2.130013   -0.116015    1.247038
H      -2.202742   -1.641815    2.121460
H      -2.166414   -0.121825    3.015238
H       1.526047   -1.388244    1.073819
H      -0.836613   -0.146548   -0.509484
H       0.839111   -0.196997   -1.064071
H      -0.058816   -1.699028   -0.814246
