25

C       0.970670   -0.371114   -1.029523
C       0.017240    0.018757    0.108623
C      -0.087048    1.545196    0.225464
C      -1.378974   -0.606628   -0.061962
C      -1.431470   -2.134714    0.083305
O      -0.890087   -2.557967    1.336924
C      -2.831590   -2.669917   -0.133356
C      -3.286668   -3.077638   -1.513602
C      -3.040158   -4.124692   -0.456770
H       1.955000    0.086804   -0.886628
H       1.119788   -1.453194   -1.088994
H       0.584818   -0.030802   -1.998612
H       0.431695   -0.372276    1.045936
H      -0.512126    1.982619   -0.686369
H      -0.727315    1.840790    1.063733
H       0.897840    1.998477    0.380325
H      -2.059479   -0.173927    0.687404
H      -1.794674   -0.331555   -1.041129
H      -0.771441   -2.597701   -0.660398
H      -1.476733   -2.234732    2.029850
H      -3.586745   -2.201620    0.496795
H      -4.309024   -2.862965   -1.804074
H      -2.570977   -2.998205   -2.325919
H      -2.155881   -4.746178   -0.550611
H      -3.895320   -4.632755   -0.025080
