16

N       0.123054    1.600875    0.287479
C      -0.043983    0.181077   -0.005205
C      -1.511367   -0.219534   -0.259630
C      -1.358306   -1.439116   -1.171931
O      -0.172097   -1.187037   -1.955654
C       0.614608   -0.269137   -1.348001
O       1.634487    0.142982   -1.815644
C       0.547600   -0.628176    1.061782
C       1.037394   -1.318638    1.914417
H       1.118244    1.795226    0.370520
H      -0.197002    2.140121   -0.514058
H      -2.063065   -0.431037    0.656034
H      -2.012130    0.596590   -0.791205
H      -1.208990   -2.360784   -0.600120
H      -2.187175   -1.578733   -1.867617
H       1.477965   -1.916856    2.673864
