21

O       0.045469   -0.054983   -0.616932
C       0.040063    1.056860   -0.154685
C       1.268812    1.937470    0.003925
C       1.281636    2.956473   -1.119629
C       0.899839    4.222844   -0.927997
C       0.884665    5.275111   -2.006452
C       1.652719    4.836172   -3.261272
C       1.323062    3.382813   -3.618980
C       1.712648    2.437873   -2.474529
H      -0.911469    1.550144    0.149815
H       1.219331    2.442229    0.974802
H       2.157706    1.298983   -0.031692
H       0.583538    4.538174    0.064985
H      -0.158924    5.510598   -2.265664
H       1.301695    6.210621   -1.612390
H       1.422287    5.504685   -4.097345
H       2.730837    4.924292   -3.074266
H       0.246021    3.293281   -3.811469
H       1.832854    3.084632   -4.541112
H       2.802914    2.286435   -2.463792
H       1.285636    1.440426   -2.636580
