15

C       0.150318    1.520807    0.015924
C       0.086755    0.067547    0.014475
C       0.024222   -1.134708    0.026872
C      -0.029703   -2.567687    0.001389
N      -0.492466   -3.270842    1.214520
C      -1.331932   -3.334872    0.002236
C      -2.609977   -2.683468    0.033297
C      -3.691150   -2.159082    0.020826
H       1.185887    1.874695   -0.036062
H      -0.389631    1.943860   -0.838397
H      -0.296161    1.932036    0.927840
H       0.766429   -3.043779   -0.569053
H       0.018310   -4.144743    1.317435
H      -1.313785   -4.262037   -0.567918
H      -4.642157   -1.687010    0.022909
