19

C       0.300181    1.502571    0.127711
C      -0.126292    0.060248   -0.153192
N       0.605385   -0.540278   -1.253927
C       1.703526   -1.344316   -1.183218
C       2.092561   -1.571200   -2.486262
O       3.148599   -2.343276   -2.874435
C       1.172486   -0.856852   -3.287584
C       1.124808   -0.769204   -4.779742
N       0.276598   -0.230886   -2.518140
H       1.356308    1.551547    0.409183
H       0.150905    2.118303   -0.762615
H      -0.294910    1.920837    0.945537
H       0.028885   -0.571451    0.726525
H      -1.188327    0.020515   -0.410662
H       2.107936   -1.691477   -0.246854
H       3.189992   -2.339728   -3.835341
H       0.981478   -1.752247   -5.246410
H       0.291540   -0.131616   -5.082139
H       2.044874   -0.339589   -5.196092
