18

O       0.659027    0.300732   -0.638220
C      -0.222047   -0.456866    0.172887
C      -1.594494    0.208535    0.303221
N      -2.239298    0.383488   -0.992709
C      -2.990515   -0.608925   -1.542203
N      -3.042626   -1.789317   -1.051517
N      -3.699125   -0.225086   -2.719902
C      -3.814531    1.007892   -3.301048
O      -3.303357    2.038700   -2.912894
H       0.224819    0.397505   -1.493294
H      -0.353090   -1.477748   -0.211010
H       0.243250   -0.523011    1.161985
H      -2.238441   -0.391454    0.955073
H      -1.472112    1.203524    0.741101
H      -2.376900    1.310199   -1.372615
H      -3.650991   -2.404368   -1.584722
H      -4.202097   -0.976905   -3.166080
H      -4.451437    0.967598   -4.203557
