19

C      -0.053289    1.420648   -0.015512
C       0.002843   -0.075116    0.048872
C       0.209213   -0.990478   -1.167957
C       0.970707   -2.139571   -0.459345
O       1.890989   -1.543612    0.485523
C       0.708599   -0.981711    1.100560
C      -0.204013   -2.131895    0.571848
C      -1.029588   -1.130849   -0.302127
C      -2.486283   -1.049004   -0.622268
H       0.952619    1.848787   -0.095592
H      -0.626695    1.759943   -0.884825
H      -0.527710    1.844738    0.876983
H       0.310978   -0.602308   -2.173372
H       1.376152   -2.987726   -1.008952
H       0.847816   -0.655000    2.130819
H      -0.550997   -2.985693    1.149244
H      -3.091291   -0.934428    0.285037
H      -2.699066   -0.192437   -1.271199
H      -2.834487   -1.949699   -1.141474
