13

C       0.093720    1.431629   -0.035823
N       0.057585   -0.015050   -0.020309
N       0.134652   -0.752684   -1.158709
C       0.071023   -1.977066   -0.747554
O      -0.044548   -2.097326    0.606051
C      -0.055348   -0.800718    1.110132
O      -0.144072   -0.498117    2.263385
C       0.109362   -3.205923   -1.562263
O       0.209042   -3.209278   -2.762456
H       1.033367    1.782887   -0.469208
H      -0.743717    1.825693   -0.616817
H       0.015669    1.763255    1.000132
H       0.036846   -4.130641   -0.955630
