17

C      -0.052644    1.496712    0.242073
C       1.418319    1.957365   -0.112141
C       2.061155    0.676353   -0.624944
C       2.695492    0.049559   -1.934905
O       4.051201   -0.019100   -1.422554
C       3.218726   -0.349855   -0.281174
C       2.182649   -1.207420   -1.118358
C       1.043376   -0.397175   -0.562196
C      -0.129871   -0.000388   -0.095094
H      -0.279234    1.679875    1.300193
H      -0.793957    2.072758   -0.326377
H       1.418278    2.748451   -0.866511
H       1.934781    2.354250    0.765721
H       2.531574    0.292019   -2.984829
H       3.688637   -0.591236    0.672196
H       2.283199   -2.252826   -1.402662
H      -1.033751   -0.579113    0.051147
