15

C       0.042172    1.452949    0.011971
N      -0.005096    0.005003   -0.000752
C      -0.007635   -0.799189   -1.123388
C      -0.002316   -2.084203   -0.656637
N       0.007568   -2.096617    0.718038
C       0.009463   -0.831155    1.086274
C       0.024223   -0.343743    2.496538
H       1.059597    1.824183    0.180394
H      -0.312389    1.834394   -0.947371
H      -0.605716    1.847634    0.798597
H      -0.017430   -0.378416   -2.115632
H      -0.010854   -2.999566   -1.228729
H       0.912157    0.260205    2.718986
H      -0.854834    0.267628    2.734648
H       0.025483   -1.212130    3.156225
