14

O      -0.450687    1.240149    0.027445
C       0.104285   -0.058332   -0.125004
C       1.121958   -0.106294   -1.281079
N       0.504350    0.354667   -2.503112
C       0.411436   -0.424345   -3.619085
O       0.882455   -1.534211   -3.733376
C       0.715282   -0.534626    1.128032
N       1.224658   -0.873091    2.108283
H       0.210142    1.807440    0.442577
H      -0.740239   -0.709787   -0.372353
H       1.991073    0.511273   -1.018657
H       1.468895   -1.127578   -1.452630
H       0.013296    1.234740   -2.474160
H      -0.145277    0.086491   -4.427993
