22

C       0.079564    1.552463    0.182048
C       0.002124    0.043786    0.002952
O       0.658521   -0.551430    1.105364
C       0.719287   -1.981381    1.162662
C      -0.677946   -2.608732    1.265797
C       1.509014   -2.567467   -0.016050
C       1.491678   -2.208553    2.472937
O       1.641681   -3.604446    2.684058
H       1.122264    1.880767    0.219802
H      -0.416721    2.062418   -0.649307
H      -0.405990    1.852922    1.114998
H      -1.049726   -0.274694   -0.050415
H       0.478424   -0.246923   -0.945333
H      -1.223411   -2.554269    0.319409
H      -0.586113   -3.660950    1.544675
H      -1.264973   -2.096419    2.034704
H       2.451377   -2.025516   -0.144620
H       1.738028   -3.616754    0.183764
H       0.947871   -2.514566   -0.953310
H       2.464863   -1.703278    2.391297
H       0.931334   -1.732073    3.290260
H       2.123793   -3.733408    3.505010
