18

O      -0.056227    1.346924    0.456579
C      -0.007818    0.003481   -0.004344
C      -1.414527   -0.522619   -0.046503
C      -2.018215   -1.125198    1.207994
C      -1.696558   -2.006900    0.023771
N      -2.751944   -2.260470   -0.911966
C      -3.277653   -1.124767   -1.491115
O      -4.268262   -1.080744   -2.183363
C      -2.379231    0.052298   -1.073107
H       0.824856    1.724583    0.377068
H       0.436205   -0.052277   -1.011748
H       0.605669   -0.626527    0.660486
H      -1.371097   -1.185397    2.076789
H      -3.064543   -0.940917    1.429779
H      -0.902783   -2.744790    0.071872
H      -3.310006   -3.100325   -0.889200
H      -3.001082    0.867122   -0.695134
H      -1.851529    0.433641   -1.954239
