17

C      -0.118526    1.346465    0.565951
N      -0.069873   -0.065520    0.268330
C      -1.139213   -0.983023   -0.116046
C      -1.964429   -0.585483   -1.319915
O      -1.797371    0.425533   -1.952156
C       0.002063   -2.019575   -0.479692
O       0.000100   -2.535243   -1.780477
C       0.950001   -0.849198   -0.229520
N       2.178824   -0.740447   -0.515532
H       0.876906    1.671458    0.881812
H      -0.434237    1.935740   -0.301043
H      -0.810794    1.532807    1.393764
H      -1.806622   -1.289754    0.701447
H      -2.759742   -1.316562   -1.583164
H       0.073219   -2.824683    0.259646
H       0.811250   -2.225046   -2.202685
H       2.543660    0.197413   -0.346321
