19

C      -0.423580    1.241472    0.447509
C      -0.097567   -0.253778    0.538052
O      -0.226540   -0.878978   -0.727225
C       1.302517   -0.515678    1.105611
C       1.689375    0.187651    2.404209
C       0.798180   -0.132652    3.513837
C       0.052605   -0.402689    4.416846
C       2.008219   -1.744174    0.727814
O       2.331653   -0.483292    0.105446
H       0.344966    1.775455   -0.122967
H      -1.379557    1.365596   -0.066548
H      -0.504828    1.700205    1.437457
H      -0.827107   -0.742514    1.193066
H       0.558997   -0.620438   -1.228707
H       2.719078   -0.091775    2.653058
H       1.698019    1.271442    2.237336
H      -0.599860   -0.639787    5.220468
H       2.780796   -2.140796    1.383847
H       1.516383   -2.460508    0.076677
