20

C       0.098676    1.642691   -0.041281
C      -0.045432    0.120341    0.024079
N       0.654016   -0.481924    1.162388
C      -0.070982   -0.756936    2.320600
N      -1.311330   -0.513091    2.410739
C      -1.964610   -0.858276    3.656894
C       2.033393   -0.728792    1.195818
N       2.724663   -0.381422    0.057069
O       2.596651   -1.182934    2.174160
H       1.145552    1.945385   -0.132236
H      -0.450839    2.035783   -0.902558
H      -0.315319    2.095503    0.863347
H      -1.095760   -0.146240    0.149338
H       0.296074   -0.353963   -0.903143
H       0.552448   -1.190889    3.104762
H      -1.288315   -1.298065    4.406741
H      -2.427083    0.035726    4.091800
H      -2.775229   -1.571174    3.464345
H       2.264185   -0.294709   -0.832040
H       3.667493   -0.735145    0.040542
