22

C      -0.030404    1.387870    0.130296
O      -0.011519   -0.016966    0.169930
C      -1.270124   -0.591065   -0.127182
C      -1.145813   -2.095958   -0.000174
C      -0.938202   -2.709893    1.430790
C      -2.218925   -3.520364    1.219865
N      -3.302327   -2.524043    1.001888
C      -2.434641   -2.935276   -0.134097
C      -3.002944   -3.511386   -1.394226
H       0.974375    1.738699    0.379993
H      -0.299340    1.767098   -0.869341
H      -0.744636    1.809561    0.855745
H      -2.041668   -0.220626    0.564009
H      -1.582600   -0.314949   -1.150789
H      -0.374797   -2.458060   -0.687044
H      -0.035461   -3.319937    1.497568
H      -0.965594   -2.004164    2.264427
H      -2.455671   -4.510689    1.591738
H      -4.172356   -3.049005    0.907634
H      -3.472943   -2.737920   -2.013573
H      -2.221874   -3.989024   -1.995800
H      -3.764371   -4.267597   -1.172105
