19

C      -0.062892    1.538124   -0.056153
C       0.092802    0.034338    0.037517
C       1.377358   -0.718778   -0.204437
C       2.576438   -0.016401    0.394765
N       3.162264   -0.774927    1.505221
C       1.932698   -0.014807    1.762068
C       1.943707    0.999296    2.869125
C       0.713892   -0.721482    1.190340
H       0.815815    2.067021    0.318678
H      -0.215401    1.842890   -1.097545
H      -0.931795    1.877602    0.518583
H      -0.765964   -0.501809   -0.367942
H       1.432664   -1.546106   -0.904476
H       3.191795    0.744900   -0.071371
H       2.982555   -1.772652    1.407446
H       2.921719    1.482816    2.933527
H       1.177774    1.766170    2.718652
H       1.746810    0.518258    3.834691
H       0.195476   -1.546185    1.669938
