15

O      -0.040010   -0.002394    0.018908
C      -0.060115    1.198129    0.031512
C      -1.334297    2.019709    0.124895
C      -1.713912    2.496307   -1.285477
O      -0.559509    2.853260   -2.046767
C       0.291085    3.757545   -1.437869
O       1.342501    3.168677   -0.650909
C       1.281020    1.979356   -0.008195
O       2.247732    1.549667    0.551229
H      -2.128236    1.397682    0.543548
H      -1.172742    2.876095    0.789858
H      -2.180107    1.682694   -1.844756
H      -2.415513    3.339916   -1.240967
H       0.824259    4.295583   -2.223704
H      -0.252792    4.467722   -0.798987
