15

C      -0.072145    1.529904   -0.275836
N      -0.112712    0.071246   -0.249891
C      -0.298984   -0.541182    1.064329
C      -1.408884   -0.519045    0.071818
C       1.329442    2.005936   -0.077390
N       1.793574    2.516754    1.026665
O       3.091920    2.783322    0.767473
N       3.371570    2.405681   -0.549995
N       2.317462    1.942896   -1.047458
H      -0.421367    1.865657   -1.257746
H      -0.706727    1.998197    0.493739
H       0.266988   -1.450734    1.239511
H      -0.386701    0.116418    1.927253
H      -2.241360    0.153486    0.272190
H      -1.668712   -1.410914   -0.490095
