19

C       0.165277    1.546229   -0.322813
C       0.063176    0.089439    0.059520
N       1.294930   -0.725126    0.055231
C       0.563825   -0.538010    1.314887
C       1.295083    0.119486    2.475935
C       2.339296   -0.849292    3.113406
O       3.589445   -0.124160    3.041433
C       3.283478    1.052339    2.451349
N       2.090365    1.306925    2.115025
H       1.068552    1.995627    0.086014
H       0.172320    1.644389   -1.414235
H      -0.700907    2.100092    0.056551
H      -0.824959   -0.401773   -0.341807
H       1.120937   -1.647271   -0.333844
H      -0.032135   -1.382286    1.668305
H       0.540929    0.421262    3.213495
H       2.142531   -1.084254    4.162431
H       2.453718   -1.777266    2.546464
H       4.128955    1.718342    2.318757
