15

C       0.026226    1.580155    0.114552
C      -0.017103    0.054132   -0.079566
C      -1.417716   -0.478079   -0.112069
C      -2.026459   -1.032148   -1.175933
C      -3.398821   -1.500703   -1.080663
O      -4.048060   -2.009070   -1.952274
O      -3.975327   -1.319517    0.167522
N      -3.272435   -0.723708    1.268045
N      -2.109887   -0.349259    1.106754
H       1.062363    1.922743    0.176307
H      -0.455969    2.095871   -0.721191
H      -0.486271    1.867533    1.036213
H       0.493802   -0.230076   -1.003974
H       0.510995   -0.429883    0.750745
H      -1.531295   -1.153839   -2.131925
