23

C       0.051051    1.547085    0.026978
C      -0.003698    0.018787    0.050514
O       0.681684   -0.495778    1.192852
C      -1.429635   -0.534569   -0.031783
C      -2.194756   -0.172811   -1.337094
C      -3.013012   -1.408881   -1.615050
C      -2.647353   -2.450679   -0.865495
C      -3.204346   -3.838505   -0.906641
C      -1.506166   -2.081562    0.058716
H       1.085762    1.887797    0.120425
H      -0.365856    1.952923   -0.899798
H      -0.523673    1.967353    0.862511
H       0.567758   -0.372971   -0.801769
H       0.230159   -0.160518    1.975680
H      -1.996352   -0.116817    0.813246
H      -2.803821    0.731792   -1.226161
H      -1.500213    0.030079   -2.167677
H      -3.784362   -1.437696   -2.378330
H      -4.008323   -3.931547   -1.642053
H      -2.425785   -4.570215   -1.159224
H      -3.600745   -4.136770    0.072578
H      -0.568402   -2.549165   -0.275522
H      -1.661228   -2.434309    1.084800
