20

C       0.442987    1.511006    0.158390
N       1.301992    0.357062   -0.159496
C      -0.143190    0.154013    0.013323
C      -0.563284   -0.662749    1.187333
C       0.338864   -0.926877    2.363627
C      -0.117779   -2.072215    1.471244
C      -1.373142   -2.824399    1.875782
C      -2.373631   -1.685287    2.179539
O      -1.948879   -0.548839    1.427610
H       0.590901    1.922758    1.152298
H       0.241693    2.244262   -0.617671
H       1.535509    0.354721   -1.148034
H      -0.744472   -0.024391   -0.876617
H       1.372352   -0.619935    2.252059
H      -0.064905   -0.837604    3.366957
H       0.619052   -2.563202    0.846712
H      -1.718582   -3.438359    1.037003
H      -1.241844   -3.483254    2.739890
H      -3.402221   -1.916300    1.888367
H      -2.374393   -1.447119    3.252243
