18

C       0.159593    1.366242   -0.014324
N      -0.093993   -0.049157   -0.177114
C      -1.302699   -0.606535    0.089358
O      -2.292166   -0.024732    0.475381
O      -1.248476   -1.948859   -0.147498
C      -2.465658   -2.652134    0.119703
C      -2.234082   -4.110725   -0.263325
C      -3.515054   -4.916073   -0.219682
O      -3.651199   -5.956897    0.367742
H       0.940474    1.551079    0.732067
H       0.462447    1.830207   -0.959750
H      -0.768201    1.828544    0.324373
H       0.640885   -0.664525   -0.482379
H      -2.725000   -2.550978    1.178499
H      -3.281557   -2.208418   -0.461124
H      -1.864486   -4.137637   -1.298392
H      -1.489178   -4.584752    0.380031
H      -4.357053   -4.472353   -0.801291
