14

N       0.489729    0.149778    0.885050
C      -0.135514    0.417023   -0.286438
O       0.219521    1.260010   -1.087164
C      -1.393278   -0.414373   -0.561790
C      -1.369951   -1.110983   -1.949664
N      -1.330887   -2.550557   -1.643142
C      -1.429622   -2.646401   -0.388122
O      -1.531572   -1.516897    0.372892
H       1.323735    0.661813    1.119334
H       0.158049   -0.585881    1.484432
H      -2.256120    0.243811   -0.431804
H      -2.261890   -0.889286   -2.543086
H      -0.499301   -0.807112   -2.535375
H      -1.450034   -3.568564    0.181437
