15

C      -0.003946    1.538063   -0.097991
C      -0.024949    0.041702    0.050040
O       1.253711   -0.650088   -0.110035
C       0.635337   -0.658300    1.137724
C       1.171397   -0.249996    2.523896
O      -0.092354   -0.809945    3.074615
C       0.262063   -1.836899    2.056940
C       1.696408   -1.716126    2.664797
O       2.583174   -2.356134    3.115294
H       0.852788    1.970994    0.423975
H       0.057409    1.817207   -1.154505
H      -0.921884    1.970306    0.313693
H      -0.846138   -0.473860   -0.448402
H       1.523758    0.701147    2.914262
H      -0.414122   -2.676128    1.916419
