21

C       0.098856    1.462797    0.163794
C       0.167131   -0.062107    0.041161
C       0.673931   -0.498356   -1.323631
O       0.703270   -1.937604   -1.343867
C       1.133147   -2.499564   -2.491566
O       1.479788   -1.865605   -3.461440
C       1.122525   -3.981410   -2.399697
C       0.807997   -4.749529   -3.672192
C       2.208191   -4.727509   -3.156725
H       1.084743    1.919199    0.023615
H      -0.574977    1.893799   -0.584614
H      -0.267327    1.759276    1.150637
H       0.826418   -0.474957    0.813416
H      -0.823553   -0.500204    0.208784
H       0.025224   -0.142181   -2.131476
H       1.681086   -0.116937   -1.524711
H       0.781766   -4.388035   -1.456430
H       0.222985   -5.655669   -3.566577
H       0.587501   -4.148064   -4.546105
H       2.925875   -4.111335   -3.685270
H       2.609953   -5.618096   -2.687764
