18

C      -0.164055    1.580951   -0.086292
C       0.013891    0.072241   -0.047864
O      -1.214610   -0.584633    0.186039
C       0.687217   -0.632728   -1.230002
C       2.127325   -0.229161   -1.373182
C       1.758611   -1.237002   -0.326657
C       1.152440   -0.538989    0.903515
C       2.004672    0.364350    1.660392
N       2.665745    1.115530    2.241395
H       0.772556    2.101829   -0.295663
H      -0.893115    1.843590   -0.858622
H      -0.529964    1.951675    0.879072
H      -1.669672   -0.127648    0.902317
H       0.122719   -1.101756   -2.025603
H       2.628903   -0.636943   -2.244410
H       2.472107    0.761728   -1.091363
H       2.160610   -2.241334   -0.311140
H       0.666961   -1.247563    1.577031
