18

C      -0.039679    1.529975    0.059978
C       0.107398    0.013071   -0.165461
C       0.914325   -0.236817   -1.428109
O       0.486640   -0.748292   -2.428561
C       0.797881   -0.625386    1.030233
N      -0.020955   -0.902860    2.199450
C       0.590224   -2.044729    1.483360
C      -0.363693   -2.978617    0.816185
O      -0.096551   -4.126952    0.569307
H       0.939034    2.016460    0.143450
H      -0.582035    1.998679   -0.765608
H      -0.590823    1.712211    0.986433
H      -0.878988   -0.432614   -0.311276
H       1.971857    0.118367   -1.371141
H       1.807948   -0.250689    1.203886
H       0.481464   -0.721577    3.063725
H       1.452422   -2.544608    1.918257
H      -1.354821   -2.537542    0.578334
