14

N       0.014235    1.068991    0.485030
C      -0.009891   -0.108480    0.070265
O       1.000536   -0.941883   -0.386853
C       0.057044   -2.018794   -0.693716
C       0.151020   -3.196484    0.250936
C      -0.856025   -2.892994    1.365152
O      -1.060348   -3.513204    2.361280
O      -1.569027   -1.761569    1.052605
C      -1.101240   -1.150751   -0.139801
H       0.959974    1.454957    0.490946
H       0.075463   -2.251510   -1.757674
H      -0.129903   -4.140430   -0.224811
H       1.150321   -3.318346    0.673594
H      -1.947296   -0.876556   -0.768079
