18

O       0.098276    1.367391   -0.444989
C       0.061221    0.087272    0.170765
C      -1.305979   -0.519957    0.144501
C      -1.966432   -1.107585   -1.077272
C      -1.846684   -1.944466    0.177348
O      -1.162931   -3.145198    0.233370
C      -2.855220   -1.469361    1.192470
C      -2.188041   -0.777181    2.319586
N      -2.371156   -0.027713    1.060068
H      -0.585245    1.902013   -0.026380
H       0.757914   -0.545964   -0.387225
H       0.425691    0.138750    1.209327
H      -2.927933   -0.727287   -1.411679
H      -1.274713   -1.382229   -1.868632
H      -1.546366   -3.748083   -0.412769
H      -3.916120   -1.701515    1.198305
H      -2.816881   -0.410541    3.125294
H      -1.186937   -1.080683    2.615969
