17

O       0.154459    1.277787    0.402963
C       0.030740    0.000599   -0.192881
C      -1.389086   -0.545327   -0.092792
C      -2.390130    0.192120   -0.817718
C      -3.230208    0.801106   -1.426274
C      -1.714143   -2.046269    0.015937
C      -0.688568   -2.756507    0.892028
O      -0.849742   -1.763141    1.945109
C      -1.903324   -1.146794    1.206489
H      -0.007103    1.170323    1.346417
H       0.295508    0.129963   -1.246230
H       0.736509   -0.711950    0.248713
H      -3.962219    1.353004   -1.961877
H      -2.436358   -2.513447   -0.638106
H      -1.041775   -3.733434    1.239781
H       0.345844   -2.840569    0.543740
H      -2.775808   -0.790571    1.740756
