21

C      -0.043695    1.534576   -0.002429
C       0.008950    0.016768   -0.002740
C      -1.230946   -0.624965   -0.598590
C       1.321765   -0.666393   -0.230918
O       2.434114    0.138179   -0.476337
C       0.706799   -0.700949    1.182208
C       1.370351    0.114658    2.286139
C       0.169475   -1.957482    1.627998
C      -0.258921   -3.010066    2.027106
H       0.902745    1.990905    0.285014
H      -0.287098    1.893892   -1.008560
H      -0.827072    1.893977    0.673999
H      -1.361268   -0.301258   -1.637561
H      -1.177850   -1.715174   -0.581230
H      -2.126635   -0.329173   -0.040633
H       1.306012   -1.606742   -0.781570
H       3.218397   -0.333341   -0.175271
H       2.007450    0.896708    1.871161
H       0.624320    0.579417    2.937981
H       1.992793   -0.536427    2.907390
H      -0.642753   -3.936091    2.376191
