17

O       0.438049    1.177276    0.648444
C       0.044323   -0.086495    0.112882
C      -1.475577   -0.298920    0.152081
C      -2.338144    0.689649   -0.618537
O      -3.219836    1.312374   -0.055697
C      -2.155514    0.839522   -2.076100
C      -1.092502    0.487056   -2.825856
C       0.196262   -0.077786   -2.446464
C       0.700150   -0.319102   -1.225140
H       0.199436    1.859012    0.010123
H       0.470748   -0.811809    0.814819
H      -1.686424   -1.304010   -0.239972
H      -1.811435   -0.259905    1.190932
H      -2.995150    1.332336   -2.557981
H      -1.174320    0.695989   -3.890799
H       0.852436   -0.275444   -3.290909
H       1.728822   -0.666380   -1.169046
