20

C       0.088682    1.557059   -0.037109
C      -0.039347    0.068096    0.083909
N       1.104509   -0.775605   -0.278374
C       0.552633   -0.922976    1.068226
C       1.415498   -0.750572    2.279226
C      -0.718075   -1.769715    0.994620
O      -1.687005   -1.412093    2.000874
C      -2.350983   -0.493845    1.104932
C      -1.329416   -0.749451   -0.022611
H       1.088217    1.880997    0.264012
H      -0.066704    1.879073   -1.073749
H      -0.647167    2.073767    0.587967
H       0.855690   -1.542648   -0.902880
H       2.094143    0.097916    2.157828
H       0.791056   -0.584614    3.162223
H       2.026151   -1.643665    2.456549
H      -0.635310   -2.853948    0.862879
H      -3.367286   -0.836108    0.874831
H      -2.401070    0.525263    1.507515
H      -1.714785   -0.992125   -1.015188
