18

C      -0.123717    1.399551    0.690519
C      -0.081924    0.039330    0.099929
C      -0.958559   -0.746829   -0.568008
N      -0.352752   -1.958425   -0.887770
C       0.845808   -1.858105   -0.408383
C       1.953001   -2.852484   -0.449510
C       1.551528   -4.135998   -1.167367
O       2.684407   -4.991388   -1.137103
O       1.090310   -0.670591    0.209001
H       0.624684    2.058971    0.236754
H      -1.110049    1.840502    0.529417
H       0.069350    1.376636    1.768954
H      -1.979260   -0.531701   -0.842490
H       2.827298   -2.416379   -0.948065
H       2.275758   -3.093376    0.570759
H       0.685191   -4.586284   -0.662941
H       1.241959   -3.903125   -2.195802
H       2.451568   -5.808756   -1.586282
