17

C      -0.068359    1.465228    0.045180
N      -0.108989    0.011763    0.046835
C       0.619628   -0.635119    0.838495
O       1.514603   -0.116662    1.739104
C       2.008412   -1.191820    2.532322
O       1.790486   -2.373896    1.813055
C       0.657752   -2.148139    0.968851
C      -0.634942   -2.728003    1.540692
H       0.511659    1.900399    0.866843
H       0.356686    1.812523   -0.903846
H      -1.093300    1.848515    0.091791
H       3.081974   -1.055785    2.692181
H       1.477072   -1.190376    3.497824
H       0.877204   -2.603756   -0.000798
H      -0.865337   -2.294798    2.519016
H      -1.462724   -2.503374    0.862933
H      -0.545507   -3.811664    1.651862
