16

C       0.239348    1.424593    0.121722
C      -0.029459   -0.087666   -0.016716
C      -1.533959   -0.433224   -0.024016
C      -2.184492   -0.092850    1.234249
C      -2.699489    0.189925    2.282695
C       0.632690   -0.625540   -1.270159
O       0.059203   -1.118568   -2.208218
C       2.110722   -0.508136   -1.291387
N       3.263840   -0.421939   -1.295133
H       1.310326    1.639871    0.156791
H      -0.197746    1.975178   -0.717521
H      -0.217144    1.786455    1.045376
H       0.452326   -0.592436    0.832236
H      -2.018906    0.091701   -0.855491
H      -1.659509   -1.501103   -0.233656
H      -3.171868    0.432037    3.202546
