13

C       0.031561    1.503864    0.016166
C      -0.088316    0.022648    0.052223
C      -1.107785   -0.851893   -0.158870
C      -0.511100   -2.129134    0.043322
C      -1.181861   -3.448708   -0.062818
O      -0.651433   -4.514476    0.113839
N       0.766538   -2.025490    0.351530
O       1.029880   -0.672576    0.356490
H       0.772461    1.817934   -0.725954
H      -0.929836    1.952228   -0.239954
H       0.351381    1.893805    0.987742
H      -2.129298   -0.628049   -0.418693
H      -2.258943   -3.369950   -0.329870
