22

C       0.461876    0.705803    0.428410
O      -0.438933    0.151441   -0.522523
C      -1.210251   -0.858239   -0.074908
N      -2.005079   -1.446324   -0.856316
C      -2.844622   -2.480045   -0.286888
C      -4.080751   -1.923217    0.395490
C      -2.992822   -3.745619   -1.087625
C      -2.245387   -3.779672    0.232388
C      -0.757509   -4.051157    0.251023
H       0.969693    1.530144   -0.073489
H      -0.068114    1.093538    1.307046
H       1.207246   -0.030751    0.752339
H      -1.075628   -1.093403    0.991647
H      -4.638242   -1.281328   -0.294886
H      -4.743342   -2.728919    0.725867
H      -3.815341   -1.320406    1.271834
H      -3.970856   -4.210763   -1.156804
H      -2.392990   -3.817097   -1.989266
H      -2.785363   -4.226810    1.064639
H      -0.257819   -3.596530   -0.608255
H      -0.282121   -3.659268    1.158733
H      -0.562217   -5.129019    0.218609
