15

O      -0.129342   -0.017119    0.007432
C      -0.078734    1.187432    0.012190
N      -1.151513    2.074499    0.030461
C      -0.651894    3.371774    0.030012
N       0.621910    3.477830    0.013464
C       1.137923    2.114245    0.000496
C       2.266971    1.789307    1.014935
O       3.223280    1.548118   -0.029468
C       2.239908    1.798709   -1.046157
H      -2.119689    1.797329    0.041932
H      -1.336411    4.213442    0.042867
H       2.538878    2.638061    1.650317
H       2.080722    0.894674    1.620055
H       2.037715    0.909609   -1.654306
H       2.495141    2.653250   -1.680697
