16

N       0.230721    1.297343    0.254946
C      -0.211095   -0.068865   -0.033642
C      -1.680370   -0.113507   -0.089614
N      -2.831499   -0.151634   -0.175535
C       0.370470   -0.667085   -1.314211
N       1.807503   -0.921502   -1.252543
C       0.879567   -2.074396   -1.377864
C       0.792325   -2.981604   -0.266824
C       0.698479   -3.757041    0.646766
H       1.247398    1.293030    0.271976
H      -0.052381    1.922112   -0.495362
H       0.107695   -0.702396    0.801737
H      -0.047370   -0.263476   -2.235268
H       2.250204   -0.737113   -2.148754
H       0.814000   -2.550173   -2.353919
H       0.618253   -4.439789    1.456620
