19

C      -0.001849    1.524886    0.028210
C       0.001913    0.032220   -0.026100
C      -0.107861   -0.760943   -1.090892
C      -0.098295   -2.212134   -0.701598
N       0.322534   -2.161714    0.707103
C      -0.093705   -3.255205    1.547184
C      -1.561170   -3.336123    1.771279
N      -2.708562   -3.349390    1.913259
C       0.100171   -0.806840    1.225785
H       0.922992    1.908848    0.476780
H      -0.103825    1.961016   -0.968696
H      -0.827484    1.896473    0.648304
H      -0.221316   -0.433075   -2.117056
H      -1.101096   -2.660831   -0.831384
H       0.601952   -2.819498   -1.292895
H       0.233766   -4.204284    1.108001
H       0.392383   -3.176829    2.526308
H       0.926290   -0.500387    1.884512
H      -0.830298   -0.719202    1.818880
