22

C       0.050989    1.404134   -0.151941
O       0.066763    0.076179    0.326364
C      -1.180385   -0.566300    0.216857
C      -1.651241   -1.173461   -1.133214
N      -1.851761   -2.524533   -0.501720
C      -0.524369   -2.967254   -0.014397
C       0.782498   -2.781342   -0.755057
C      -1.252544   -1.969569    0.805433
C      -1.820490   -2.267112    2.163023
H       1.049590    1.818583    0.004543
H      -0.188876    1.454488   -1.224643
H      -0.680614    2.020753    0.393400
H      -1.964440    0.075413    0.646725
H      -2.607319   -0.785190   -1.489722
H      -0.929318   -1.158008   -1.954643
H      -0.630542   -3.974249    0.388506
H       1.006481   -1.737519   -0.969010
H       1.600701   -3.170680   -0.140253
H       0.774409   -3.349894   -1.692258
H      -1.107535   -1.986853    2.947459
H      -2.748808   -1.712159    2.337930
H      -2.039027   -3.333362    2.269843
