17

C      -0.045462    1.554495    0.020980
C       0.128213    0.049543    0.043380
N       1.310088   -0.576389   -0.740271
C       2.187939   -0.178352    0.467742
C       0.920376   -0.713483    1.159402
C       0.996430   -1.834324    0.088643
C       0.611528   -0.821022    2.617065
O       1.341128   -0.425784    3.492972
H      -0.236084    1.881719   -1.006527
H      -0.913777    1.834866    0.626278
H       0.815969    2.108253    0.398191
H      -0.812606   -0.430363   -0.248392
H       3.096468   -0.778101    0.553293
H       2.419501    0.883429    0.529368
H       0.071769   -2.337034   -0.206334
H       1.834168   -2.532268    0.154947
H      -0.368921   -1.297702    2.854744
