19

O       0.190280    0.854788   -0.796882
C       0.107938   -0.235079    0.068556
C       0.090352   -0.014450    1.609516
C      -1.027082   -1.088336    1.711352
C      -1.302353   -0.920486    0.189274
O      -2.305279    0.083587   -0.052874
C      -3.266596   -0.389741   -0.999059
C      -2.806542   -1.772878   -1.359308
C      -1.702104   -2.064206   -0.680791
H      -0.680328    1.275017   -0.751750
H       0.877017   -0.957281   -0.224993
H       1.020483   -0.185372    2.155366
H      -0.285519    0.983921    1.848124
H      -0.639252   -2.084801    1.941475
H      -1.878980   -0.876390    2.359571
H      -4.268608   -0.381919   -0.543363
H      -3.297985    0.285448   -1.867078
H      -3.325984   -2.403409   -2.069416
H      -1.135468   -2.985595   -0.723613
