20

C       0.018869    1.417177    0.148800
O       0.059050    0.010164    0.047557
C       0.645518   -0.527170   -1.136426
C       2.113980   -0.121737   -1.298072
C       0.488871   -2.071124   -1.052609
C      -0.322345   -2.441568   -2.308118
O      -0.141144   -1.357108   -3.211937
C      -0.180467   -0.191191   -2.411776
H       1.016957    1.863306    0.258640
H      -0.477623    1.888585   -0.712053
H      -0.560298    1.648089    1.046578
H       2.702808   -0.450424   -0.436094
H       2.521004   -0.593317   -2.197584
H       2.234633    0.960095   -1.408811
H       1.465760   -2.560330   -1.052448
H      -0.024882   -2.333255   -0.126328
H       0.016840   -3.353197   -2.805692
H      -1.390379   -2.557148   -2.063659
H      -1.213634    0.049283   -2.109392
H       0.220557    0.634141   -3.005532
