18

O      -0.059210    1.405381   -0.042645
C       0.007132   -0.012732    0.021773
C      -1.417781   -0.548455    0.007553
C      -2.206962   -0.196282   -1.281410
C      -3.226593   -1.343560   -1.481000
C      -2.566106   -2.535379   -0.817165
O      -1.186100   -2.706512   -1.176314
C      -1.498586   -2.064039    0.071438
H       0.837740    1.746097   -0.104016
H       0.555200   -0.430582   -0.836702
H       0.522236   -0.344157    0.938504
H      -1.940222   -0.148448    0.887783
H      -2.679787    0.784643   -1.217807
H      -1.514860   -0.168426   -2.126757
H      -4.172822   -1.136457   -0.965365
H      -3.461726   -1.519945   -2.535293
H      -3.114420   -3.457206   -0.638056
H      -1.187677   -2.605208    0.962549
