20

C      -0.341440    1.568105   -0.160143
C       0.086344    0.109895    0.006636
N       0.773126   -0.404330   -1.168491
N       0.077157   -0.575976   -2.323297
C       1.006173   -1.029547   -3.146306
N       2.244031   -1.163772   -2.604735
C       2.069013   -0.761571   -1.352479
C       3.147565   -0.686270   -0.318141
C       3.784212    0.710327   -0.204476
H       0.526109    2.219360   -0.301987
H      -0.994525    1.669842   -1.029642
H      -0.884102    1.903248    0.728663
H       0.760243   -0.005336    0.858735
H      -0.787254   -0.524607    0.183723
H       0.779427   -1.278842   -4.172521
H       2.762561   -1.001907    0.658226
H       3.909679   -1.413568   -0.609551
H       4.193481    1.023959   -1.168636
H       3.052601    1.460943    0.111103
H       4.596423    0.703093    0.528335
