18

O       0.107973    1.346059   -0.121062
C       0.006623   -0.049866   -0.074996
C      -1.432022   -0.492993   -0.016942
N      -2.378805    0.356030   -0.012595
C      -3.714714   -0.244717    0.047369
C      -3.712033   -1.347548    1.150323
C      -2.995140   -2.211202    0.083718
C      -3.779169   -1.411598   -0.985571
O      -1.598903   -1.834960    0.028492
H      -0.807041    1.669267   -0.100560
H       0.476059   -0.512181   -0.957636
H       0.530244   -0.458141    0.803884
H      -4.482899    0.527178    0.048343
H      -3.181932   -1.136377    2.080853
H      -4.712992   -1.731731    1.355354
H      -3.013208   -3.299275    0.116933
H      -4.790312   -1.805468   -1.103960
H      -3.308942   -1.257568   -1.958529
