17

C      -0.046507    1.515589   -0.065533
C      -0.007277    0.025320    0.001477
C      -0.036747   -1.020805   -1.106061
C       0.823231   -1.971517   -0.224311
C       0.857359   -0.951881    0.866860
C      -0.305983   -1.971659    0.834407
C      -0.577104   -3.011904    1.817334
O       0.285648   -3.646414    2.387707
C      -1.134042   -1.000788   -0.046310
H       0.929178    1.930711   -0.343398
H      -0.774424    1.845990   -0.814528
H      -0.336775    1.953729    0.896394
H      -0.107777   -0.890735   -2.177381
H       1.491617   -2.795109   -0.434487
H       1.556576   -0.817918    1.681424
H      -1.656678   -3.196662    2.020145
H      -2.200015   -0.849391   -0.157628
