16

N       0.087807    1.286209   -0.053627
C      -0.029072    0.025079    0.006278
N      -1.237298   -0.655915   -0.043996
C      -1.293050   -2.093659   -0.013836
C      -1.961458   -2.748890    1.178114
C      -2.752907   -2.442524   -0.080847
N      -3.410476   -1.178792   -0.186172
C      -2.543613   -0.097827   -0.054404
O      -2.854719    1.057433    0.051005
H       1.073339    1.538282   -0.000716
H       0.802828   -0.685846    0.097449
H      -0.539207   -2.616704   -0.589600
H      -1.717027   -3.789676    1.360604
H      -2.140509   -2.146167    2.061659
H      -3.126774   -3.245479   -0.705556
H      -4.367082   -1.034710    0.094206
