21

C      -0.000368    1.531263   -0.121411
C       0.074981    0.003273    0.044290
C       0.786924   -0.331468    1.342643
O       1.705130   -1.100957    1.460971
C      -1.328870   -0.615028    0.078809
C      -2.228208   -0.492883   -1.170507
O      -2.524282   -1.899518   -1.147860
C      -1.539949   -2.148178   -0.109597
C      -0.389958   -3.001862   -0.614668
H       0.998363    1.973967   -0.180325
H      -0.538738    1.793837   -1.036589
H      -0.526880    1.994648    0.720685
H       0.659186   -0.432318   -0.771841
H       0.371118    0.202336    2.232035
H      -1.852328   -0.260211    0.973347
H      -3.129075    0.123494   -1.072985
H      -1.697537   -0.199514   -2.088184
H      -2.012264   -2.634299    0.753481
H       0.056637   -2.575191   -1.517650
H       0.392036   -3.099990    0.144128
H      -0.762143   -3.999863   -0.865445
