15

C       0.064140    1.400161    0.007086
O      -0.002454   -0.015552    0.003213
C      -1.227818   -0.598821    0.010870
C      -2.447497    0.086559    0.022394
N      -3.632232   -0.532826    0.029624
C      -3.646975   -1.864045    0.025631
C      -2.484466   -2.636221    0.014278
C      -1.256715   -1.996248    0.006779
H       1.125513    1.652476   -0.000303
H      -0.415910    1.829557   -0.881270
H      -0.402155    1.824022    0.905372
H      -2.478767    1.171290    0.025972
H      -4.625287   -2.337552    0.031722
H      -2.544392   -3.719192    0.011398
H      -0.319596   -2.541758   -0.002137
