23

C       0.033303    1.589673    0.219407
C      -0.031937    0.082876    0.045808
C      -1.333927   -0.459051   -0.526695
C      -1.620277   -0.022318   -1.972948
C      -2.897372   -0.623333   -2.506130
O      -4.121113   -0.046863   -2.034892
C      -3.792862    0.098512   -3.417662
C       1.244695   -0.641817   -0.315220
C       0.673103   -0.763346    1.078854
H       0.979473    1.891385    0.679414
H      -0.046660    2.116594   -0.737837
H      -0.779218    1.946737    0.863412
H      -1.310169   -1.555944   -0.488009
H      -2.173786   -0.146529    0.107279
H      -1.697777    1.068633   -2.033907
H      -0.786160   -0.323129   -2.620910
H      -2.919342   -1.715235   -2.542734
H      -3.533755    1.108982   -3.732416
H      -4.426937   -0.453065   -4.110838
H       1.178099   -1.506388   -0.968197
H       2.149761   -0.058175   -0.447903
H       1.190146   -0.258307    1.888168
H       0.222817   -1.708309    1.364902
