23

C       0.177327    1.541544    0.022442
C       0.010268    0.019918   -0.040637
C      -1.446355   -0.472897   -0.015440
C      -2.238981   -0.096267   -1.277923
C      -3.725626   -0.451972   -1.131380
C      -3.928237   -1.889529   -0.711172
O      -3.171766   -2.867646   -1.430011
C      -2.842945   -2.634473   -0.051005
C      -1.490926   -1.997812    0.217596
H       1.236206    1.816941    0.051907
H      -0.265043    2.040606   -0.845211
H      -0.297222    1.954183    0.920019
H       0.500702   -0.368965   -0.943666
H       0.543299   -0.429741    0.807526
H      -1.947110    0.007565    0.840003
H      -2.147476    0.974136   -1.485597
H      -1.822171   -0.628836   -2.140963
H      -4.194551    0.194037   -0.376364
H      -4.259671   -0.269833   -2.072045
H      -4.959161   -2.185613   -0.509106
H      -3.113503   -3.467284    0.599098
H      -0.754856   -2.492277   -0.430464
H      -1.189869   -2.218129    1.248538
