21

C      -0.078463    1.586511    0.094485
C      -0.090972    0.056234    0.097753
C       0.812612   -0.543562    1.195089
C       0.854744   -2.037451    1.217027
C       1.763234   -2.929682    0.701438
N       1.381617   -4.228621    0.938610
C       0.250211   -4.129519    1.594459
N      -0.125673   -2.830622    1.794576
C      -1.306130   -2.389848    2.507474
H       0.933273    1.973280   -0.070980
H      -0.721201    1.988039   -0.694821
H      -0.432707    1.989857    1.049978
H      -1.119463   -0.303336    0.228190
H       0.240700   -0.325940   -0.874566
H       1.836312   -0.181973    1.044693
H       0.498421   -0.152286    2.172913
H       2.678047   -2.698038    0.175319
H      -0.349313   -4.951514    1.959329
H      -1.040363   -1.725231    3.335499
H      -2.001721   -1.862691    1.846876
H      -1.814791   -3.263898    2.918630
