16

O       0.001818    0.014588    0.002821
C      -0.014603    1.221413    0.019153
C      -1.264002    2.072788   -0.051544
C      -1.527408    3.130418    1.009166
C      -0.816182    3.506233   -0.255742
C       0.715167    3.527374   -0.278298
C       1.473434    3.171850    0.964964
C       1.208198    2.106919   -0.087956
H      -2.115440    1.624978   -0.549507
H      -2.563564    3.437449    1.104020
H      -1.001145    3.095357    1.954321
H      -1.322863    4.153212   -0.961558
H       1.182793    4.187802   -0.998469
H       2.503066    3.507399    1.029389
H       0.976400    3.122666    1.925193
H       2.056639    1.682577   -0.610956
