15

C       0.056639   -1.184801   -0.003944
C       0.049987    0.016148    0.012956
C       0.026909    1.452430    0.044869
C      -1.054561    2.078200   -0.680894
N      -1.908762    2.602093   -1.258358
C       0.448465    2.262069    1.293811
C       1.617417    1.558072    1.988446
N       2.375276    1.514107    0.688008
C       1.312830    2.303481    0.065782
H       0.067675   -2.246426   -0.032718
H      -0.241519    2.973552    1.726667
H       2.085101    2.209875    2.731247
H       1.427660    0.572827    2.422610
H       3.240917    2.038764    0.743548
H       1.481951    3.059865   -0.690725
