23

C       0.661073    1.311010    0.274820
C      -0.137437    0.032549    0.042437
O      -1.529612    0.299697    0.038229
C       0.403117   -0.847685   -1.128497
C       1.080535   -1.775607   -0.092787
C       1.152603   -3.317647   -0.209848
C       2.550542   -3.276408    0.464105
C       2.620447   -1.762536    0.128121
C       0.205046   -1.123611    1.014497
H       1.735614    1.110697    0.325368
H       0.498806    2.023024   -0.544974
H       0.351869    1.787256    1.210655
H      -1.693535    1.021956   -0.578215
H      -0.426447   -1.346137   -1.638982
H       1.049728   -0.368073   -1.870953
H       0.362073   -3.891193    0.282908
H       1.213650   -3.638459   -1.255309
H       2.489562   -3.453033    1.541493
H       3.331129   -3.920292    0.052493
H       3.158607   -1.578544   -0.807804
H       3.016823   -1.089751    0.894480
H       0.688557   -0.857265    1.959248
H      -0.694209   -1.709498    1.223692
