15

C       0.003129    1.321162   -0.209187
O      -0.053591   -0.090864   -0.120268
C      -1.336608   -0.582459    0.168059
O      -2.252880   -0.383230   -0.899272
C      -2.523744   -1.622566   -1.548407
C      -1.904828   -2.666099   -0.662907
C      -1.252586   -2.076822    0.330860
H       1.048138    1.589895   -0.378764
H      -0.607723    1.696353   -1.039054
H      -0.340723    1.796031    0.722808
H      -1.737471   -0.041733    1.042050
H      -3.612091   -1.735670   -1.646886
H      -2.097808   -1.639036   -2.563730
H      -1.987953   -3.728610   -0.852791
H      -0.682729   -2.543025    1.122477
