13

F       0.082301    0.055799    0.002212
C      -0.060412    1.369293    0.011277
C      -1.246662    1.987606    0.030871
C      -1.283802    3.440597    0.039229
N      -2.386795    4.085794    0.057881
N      -0.004317    4.042211    0.024940
C       1.228780    3.423373    0.004737
O       2.286084    4.010605   -0.006528
N       1.140187    2.032995   -0.001573
H      -2.174068    1.437624    0.040602
H      -2.238033    5.095765    0.061318
H       0.048352    5.050697    0.029717
H       2.007912    1.520274   -0.016208
