15

C      -0.030935    1.515159   -0.051419
C      -0.008692    0.010088    0.013023
N      -0.026938   -0.634263   -1.161302
C      -0.007744   -1.966283   -1.126619
N       0.028009   -2.752741   -0.046986
C       0.046010   -2.108160    1.116987
C       0.029151   -0.714014    1.218022
C       0.051510   -0.083843    2.558760
O       0.083833   -0.709532    3.593503
H       0.856306    1.950514    0.420031
H      -0.060172    1.821339   -1.097274
H      -0.906115    1.926373    0.462321
H      -0.023068   -2.470534   -2.090258
H       0.075202   -2.703917    2.025390
H       0.036898    1.025198    2.569328
