19

C      -0.472137    1.569321   -0.538796
C      -0.515197    0.041621   -0.603025
C      -0.854734   -0.588717    0.763395
C      -0.896743   -2.076492    0.715733
N      -1.929333   -2.863246    0.777990
C      -1.357603   -4.113711    0.653532
C      -2.146453   -5.376847    0.667933
N      -0.057042   -4.101789    0.522268
O       0.260897   -2.735302    0.563139
H      -0.232106    1.995947   -1.517037
H      -1.436622    1.981117   -0.222297
H       0.286386    1.915570    0.171767
H      -1.261213   -0.282213   -1.337912
H       0.449756   -0.348587   -0.944597
H      -0.108104   -0.277880    1.503598
H      -1.832353   -0.244158    1.110129
H      -2.879073   -5.375348   -0.144714
H      -1.486361   -6.238053    0.555562
H      -2.700183   -5.466835    1.607281
