19

C      -0.310656    1.529165   -0.056558
C      -0.023633    0.034441   -0.032152
C      -1.277447   -0.805419   -0.250055
O      -1.814548   -0.557448   -1.556128
C      -3.115777   -0.228839   -1.669077
O      -3.641238   -0.022069   -2.720191
C       1.172641   -0.479134   -0.874646
O       1.727498   -1.171531    0.263959
C       0.803373   -0.522098    1.155754
H       0.604710    2.104671    0.109153
H      -0.729351    1.832725   -1.020740
H      -1.027379    1.807652    0.725074
H      -1.034783   -1.871839   -0.190171
H      -2.032582   -0.578500    0.515218
H      -3.629383   -0.172584   -0.688901
H       0.942606   -1.155913   -1.704083
H       1.837940    0.317699   -1.232761
H       1.287839    0.256080    1.761547
H       0.303785   -1.233461    1.825971
