20

C      -0.127375    1.527187    0.115791
C       0.018327    0.007728   -0.011533
C      -1.326728   -0.646070   -0.370527
C      -1.863324   -0.200345   -1.711714
O      -2.953567    0.277078   -1.899249
C       1.253515   -0.396489   -0.885498
C       2.081615   -0.589997    0.412246
C       0.755810   -0.611347    1.219303
H       0.823218    1.994099    0.392823
H      -0.457239    1.979558   -0.826127
H      -0.864320    1.786188    0.884190
H      -1.186852   -1.735658   -0.423457
H      -2.085440   -0.438759    0.391701
H      -1.155887   -0.347969   -2.561690
H       1.092660   -1.343236   -1.410427
H       1.610665    0.341481   -1.608953
H       2.711960   -1.479697    0.469986
H       2.699426    0.280457    0.646544
H       0.718496   -0.039613    2.150727
H       0.417494   -1.631003    1.426727
