12

O       0.237722   -0.054541    0.062356
C       0.057059    1.115857   -0.093597
O      -1.191564    1.547286   -0.475370
C      -1.548704    2.790045   -0.904062
C      -0.777088    3.788515   -1.339038
C       0.695597    3.744982   -1.457832
O       1.293584    4.210433   -2.395641
N       1.405319    3.218218   -0.349092
C       1.120592    2.130731    0.231592
H      -2.630469    2.856163   -0.922853
H      -1.268530    4.659662   -1.756494
H       1.739342    1.805068    1.070014
