20

C       0.979234    0.962918   -0.176898
O       0.745906   -0.386167    0.154088
C      -0.094411   -0.545676    1.282111
C      -0.162538   -2.032246    1.616421
C       1.132520   -2.577947    2.212570
C       1.648837   -3.891061    1.711839
N       2.336449   -2.652260    1.350288
C       1.377161   -2.189696    3.582087
C       1.532588   -1.859581    4.728011
H       1.478224    1.502550    0.642350
H       1.627075    0.977251   -1.056515
H       0.042161    1.489702   -0.416721
H       0.298602    0.022443    2.140477
H      -1.102408   -0.156819    1.061281
H      -0.983596   -2.203691    2.320570
H      -0.399918   -2.578415    0.696414
H       2.199341   -4.538666    2.387424
H       1.045530   -4.408451    0.969185
H       2.074410   -2.335628    0.419924
H       1.692134   -1.573751    5.738054
