18

C      -0.011270    1.487159    0.010256
C       1.480196    1.808163   -0.002168
C       2.132009    0.663652    0.738537
C       2.117707    0.671740   -0.767366
C       0.973598   -0.342730   -1.105251
C       1.413483   -1.727895   -0.688066
C       1.426134   -1.735055    0.646925
C       0.994405   -0.354480    1.087197
N       0.025662    0.017004    0.002028
H      -0.527761    1.846302    0.906359
H      -0.544634    1.855832   -0.871985
H       1.875966    2.816210   -0.000510
H       3.036040    0.759806    1.323889
H       3.010468    0.774271   -1.368714
H       0.534868   -0.234768   -2.098356
H       1.723317   -2.510123   -1.367618
H       1.748711   -2.524493    1.312056
H       0.574619   -0.257208    2.089553
