12

O       0.297917   -0.099839   -0.524576
C       0.635394    0.651018    0.348986
C       1.512513    1.857709    0.153002
C       1.182032    3.077266    0.948754
O       2.237888    2.224630    1.321925
C       2.249962    2.078135   -1.147114
O       3.342171    2.581171   -1.196464
C       1.537881    1.718488   -2.382088
N       1.009687    1.520397   -3.391171
H       0.345399    0.515116    1.413025
H       1.472036    4.041763    0.536315
H       0.300580    3.064799    1.588695
