18

N       0.328666    1.219457    0.655360
C       0.007823   -0.036524   -0.004579
C      -1.459969   -0.494895    0.064105
C      -2.456090    0.655800   -0.063068
O      -3.755691    0.084374   -0.060826
C      -1.524573   -1.440670   -1.146816
O      -0.594524   -0.909900   -2.118639
C       0.298190   -0.088271   -1.515093
O       1.155327    0.500622   -2.110576
H       1.337326    1.342662    0.639292
H      -0.033933    1.995923    0.107784
H       0.628737   -0.818957    0.452142
H      -1.681507   -1.031385    0.989669
H      -2.316932    1.347232    0.778959
H      -2.271993    1.216114   -0.995459
H      -4.399241    0.792064   -0.157767
H      -1.214496   -2.459538   -0.889651
H      -2.512386   -1.471236   -1.607016
