14

N      -0.067769    1.253683    0.007621
C      -0.026062   -0.002259   -0.001472
O       1.096505   -0.804985    0.006097
C       0.558464   -2.158038    0.021200
O      -0.612621   -2.062986   -0.739111
C      -1.195775   -0.984862    0.009420
C      -1.178516   -1.545113    1.450555
O      -1.246446   -2.967075    1.513030
C       0.040983   -2.355420    1.460309
H       0.871452    1.655295    0.022341
H       1.278757   -2.847553   -0.411262
H      -2.130038   -0.645196   -0.425667
H      -1.552839   -0.973874    2.291702
H       0.708078   -2.479411    2.305203
