19

C       0.538730    1.371393    0.081216
O       0.877983    0.012515    0.216827
C      -0.031960   -0.702076    1.034329
C       0.357703   -2.141088    1.047228
C       0.146713   -3.078897    2.206128
C       1.547678   -2.824579    1.715312
C       1.823003   -3.580091    0.377066
O       0.665920   -4.349119    0.010361
C       0.683478   -2.940003   -0.262770
H       0.544277    1.893649    1.051495
H       1.284887    1.832221   -0.570591
H      -0.457859    1.502844   -0.370132
H      -0.033320   -0.297307    2.061019
H      -1.058353   -0.582764    0.641248
H      -0.097954   -2.592127    3.145369
H      -0.320451   -4.042331    2.047255
H       2.320720   -2.372750    2.322147
H       2.782748   -3.899287   -0.009424
H       0.511916   -2.612409   -1.280439
