23

C       0.228457    1.639678    0.144197
C       0.072543    0.135317    0.100386
C      -1.365710   -0.437904   -0.074829
C      -1.153857   -1.370907    1.155388
C       0.279563   -0.811719    1.349563
C       1.390758   -1.583462    0.589941
C       1.149110   -0.689798   -0.638298
C       1.148658   -1.104193   -2.081017
C       2.210074   -0.162575   -1.560752
H       1.241256    1.930924    0.443061
H       0.030270    2.089611   -0.837387
H      -0.475485    2.087349    0.854843
H      -2.147516    0.311137    0.081766
H      -1.556191   -0.934646   -1.030214
H      -1.827405   -1.150672    1.987373
H      -1.207267   -2.445355    0.955359
H       0.534228   -0.430734    2.340059
H       2.386657   -1.458817    1.026766
H       1.207705   -2.655081    0.454636
H       1.436371   -2.123082   -2.321673
H       0.382674   -0.693927   -2.732671
H       2.159502    0.877739   -1.866326
H       3.221016   -0.540963   -1.440881
