19

O      -0.209228    1.575151    0.186260
C      -0.033712    0.184817   -0.047663
C       0.946208   -0.386175    0.955831
C       1.238419   -1.660105    1.213341
C       0.706378   -2.912529    0.575777
C      -0.607755   -2.913928   -0.150731
C      -1.485807   -1.937888   -0.386078
C      -1.420451   -0.481227   -0.012715
O      -2.025021   -0.215574    1.264819
H      -0.839785    1.627729    0.918239
H       0.376122    0.098292   -1.061975
H       1.482036    0.386836    1.501588
H       2.010212   -1.849894    1.957533
H       1.478587   -3.304355   -0.108684
H       0.643728   -3.692178    1.350680
H      -0.877854   -3.905628   -0.512814
H      -2.399995   -2.217825   -0.904643
H      -2.042446    0.083208   -0.715184
H      -1.560512   -0.767921    1.905631
