14

N      -0.093032   -1.071465   -0.172015
C      -0.052752    0.079983   -0.074465
C       0.004961    1.525519    0.050924
C      -0.125918    1.960967    1.527416
C       1.341872    2.115101    1.664187
C       1.489490    2.085716    0.110438
N       1.382144    3.482778   -0.336996
C       0.760393    4.068122    0.605318
N       0.491099    3.307245    1.795376
H      -0.640084    1.999525   -0.694044
H      -0.885280    1.629037    2.222819
H       2.035934    1.842675    2.449277
H       2.266589    1.514132   -0.387506
H       0.430754    5.100714    0.570706
