15

O       0.102910   -0.040228   -1.497629
C       0.087144    0.955952   -0.845325
O       1.212870    1.459587   -0.277168
C       1.107364    2.695447    0.408744
C       2.409834    2.868411    1.216593
C       2.377296    4.033879    2.089295
C       2.325213    4.995228    2.808171
C       0.869866    3.849655   -0.564805
O       0.522752    3.685244   -1.703388
H      -0.817657    1.542315   -0.606813
H       0.259584    2.686009    1.112216
H       2.554730    1.955630    1.804129
H       3.254128    2.927547    0.519606
H       2.295388    5.842809    3.447918
H       1.025889    4.857376   -0.128868
