20

C       0.052449    1.385891    0.162400
O       0.045831   -0.018670    0.054410
C       0.585987   -0.481092   -1.165187
C       0.504138   -2.003203   -1.180402
N      -0.846256   -2.505593   -1.190094
C      -1.912284   -2.528752   -0.181211
C      -2.777165   -3.306202   -1.214245
C      -1.547820   -3.199249   -2.147298
O      -1.252300   -3.555439   -3.259139
H       1.074378    1.792791    0.108313
H      -0.547151    1.859326   -0.630708
H      -0.378605    1.642035    1.133082
H       0.028537   -0.065549   -2.020473
H       1.638978   -0.167260   -1.267730
H       0.987519   -2.385239   -2.085215
H       1.045573   -2.396338   -0.309799
H      -1.648295   -3.088409    0.723082
H      -2.274249   -1.537234    0.099691
H      -3.041166   -4.328139   -0.936628
H      -3.664612   -2.784632   -1.577039
