16

C      -0.050463    1.464846   -0.066349
C       0.010327   -0.029175   -0.066754
N       0.670617   -0.866315   -1.120915
C       0.132233   -1.889865   -0.174440
C       0.462475   -1.011719    1.061098
O      -0.852778   -1.130043    1.673859
C      -1.152817   -1.081532    0.262183
C      -2.542078   -1.147258   -0.248401
O      -3.528703   -1.193610    0.440212
H       0.959949    1.883652   -0.104129
H      -0.609681    1.843739   -0.927960
H      -0.543626    1.812891    0.846206
H       0.130701   -0.852215   -1.989105
H       0.239095   -2.966103   -0.308113
H       1.344119   -0.994684    1.699340
H      -2.600527   -1.141970   -1.361572
