18

C      -0.141585    1.609735    0.009731
C      -0.043532    0.093249    0.014694
C      -1.360264   -0.579979   -0.298660
O      -2.380329    0.024431   -0.529391
C       1.189733   -0.576668   -0.648944
C       2.161124   -0.239948    0.521610
C       2.550665   -1.711720    0.594609
N       1.072279   -1.838046    0.250526
C       0.775666   -0.597623    1.137836
H       0.820362    2.076452    0.236992
H      -0.480353    1.969133   -0.965795
H      -0.875032    1.949283    0.746207
H      -1.329350   -1.687256   -0.303425
H       1.426314   -0.674696   -1.710610
H       2.759123    0.663573    0.670796
H       3.213089   -2.110972   -0.180238
H       2.806854   -2.131526    1.572734
H       0.521836   -0.720548    2.192911
