19

C      -0.094059    1.493025   -0.019471
N       1.212070    0.805416   -0.009975
C      -0.034101    0.011215    0.013747
C      -0.288411   -0.742542    1.313306
C       0.149225   -2.184993    1.233697
C       0.167718   -2.867490    0.088408
C      -0.244771   -2.237810   -1.191258
N      -1.583366   -1.579706   -1.204046
C      -0.370173   -0.751434   -1.232097
H      -0.323436    2.047637    0.886982
H      -0.429274    1.973951   -0.935625
H       1.612310    0.806314   -0.946217
H       0.239265   -0.225503    2.120183
H      -1.359980   -0.700982    1.549023
H       0.437273   -2.671133    2.161483
H       0.481935   -3.906586    0.062148
H       0.060605   -2.741383   -2.104252
H      -1.982145   -1.633255   -2.138314
H      -0.117750   -0.243523   -2.162704
