16

O      -0.277712    1.401750   -0.053981
C       0.006660    0.031478    0.020474
C       0.207213   -0.659937    1.435258
C      -0.680562   -1.847954    0.914636
O      -1.814898   -2.333703    1.605462
C      -2.986760   -1.916743    0.876363
C      -2.512780   -0.825863   -0.071622
C      -1.187387   -0.875488   -0.103633
H       0.554309    1.884654   -0.068071
H       0.828242   -0.248640   -0.654323
H       1.231362   -0.885060    1.743904
H      -0.318849   -0.086619    2.200397
H      -0.065260   -2.684335    0.557187
H      -3.437393   -2.784752    0.368815
H      -3.728843   -1.531430    1.588108
H      -3.166935   -0.066695   -0.479205
