19

C       0.103228    1.520501   -0.161338
C      -0.077971    0.012055    0.059667
C       0.659447   -0.496046    1.266708
C       2.109088   -0.907072    1.278327
C       1.051257   -1.916679    1.656363
C       0.483356   -1.665046    3.082560
N       1.209801   -0.524746    3.701850
C       0.118913   -0.283880    2.721683
H       1.157617    1.767878   -0.320104
H      -0.462958    1.864388   -1.032694
H      -0.241698    2.091914    0.707289
H      -1.148423   -0.216934    0.159161
H       0.268678   -0.535079   -0.825908
H       2.533574   -1.061043    0.290203
H       2.795453   -0.526493    2.023734
H       0.887786   -2.833730    1.104428
H      -0.039274   -2.391586    3.690889
H       0.809394   -0.388090    4.629774
H      -0.752214    0.304652    2.981771
