15

N      -0.075174    1.305942    0.002615
C       0.006753   -0.047751   -0.020003
O       1.049769   -0.685617   -0.065328
C      -1.303261   -0.726551    0.012809
N      -2.511317   -0.178288    0.052190
C      -3.385806   -1.226239    0.071139
N      -4.758991   -1.007567    0.180130
C      -2.697595   -2.428635    0.040843
N      -1.369963   -2.075317    0.001861
H       0.770249    1.849521    0.001445
H      -0.976013    1.751406    0.059379
H      -5.002346   -0.069840   -0.110691
H      -5.321654   -1.688453   -0.311148
H      -3.025394   -3.453814    0.051148
H      -0.554776   -2.666897   -0.031352
