20

C       0.096863    1.583462   -0.041248
C       0.045360    0.073068    0.022692
C      -1.343288   -0.574953    0.329489
C      -0.767028   -1.217283    1.626155
C       0.654198   -0.803155    1.190580
C       1.287969   -1.741064    0.122611
C       0.880417   -0.732906   -0.994066
O       0.152341   -1.198346   -2.109817
H       1.129307    1.949552   -0.083101
H      -0.424881    1.952453   -0.932919
H      -0.383005    2.037210    0.833348
H      -2.148547    0.146079    0.489684
H      -1.663557   -1.283676   -0.436072
H      -1.095475   -0.692366    2.527884
H      -0.938541   -2.288286    1.773193
H       1.335016   -0.399772    1.942001
H       2.361370   -1.921153    0.219818
H       0.778024   -2.705426    0.033045
H       1.750186   -0.140380   -1.317863
H       0.741141   -1.728439   -2.656014
