18

C      -0.088314   -1.243368   -0.163053
C      -0.037555   -0.046007   -0.070211
C       0.003313    1.403152    0.066767
C      -0.637629    1.951247    1.391823
C       0.254772    3.150837    1.685246
C       1.745797    2.905893    1.912499
C       2.125714    1.571057    1.289031
N       1.386280    1.953385    0.024403
C       1.232572    3.338244    0.560130
H      -0.127806   -2.300285   -0.257854
H      -0.524844    1.853513   -0.782870
H      -1.680533    2.243237    1.240672
H      -0.617263    1.198073    2.184348
H      -0.154616    4.028101    2.173203
H       2.314442    3.474570    2.638377
H       3.194689    1.483329    1.078306
H       1.778251    0.647942    1.764438
H       1.390779    4.219302   -0.048135
