18

C      -0.097869    1.486391   -0.084032
C       0.097897   -0.013239   -0.069789
C       1.481682   -0.617520   -0.168922
C       0.715767   -0.688889    1.116064
C       1.049220   -0.121727    2.491759
O       0.545738   -1.325424    3.129867
C       0.233379   -1.939139    1.865843
C      -1.188607   -2.274080    1.724687
N      -2.305381   -2.531631    1.575769
H       0.723184    2.001031    0.426610
H      -0.136063    1.864539   -1.110650
H      -1.031512    1.770077    0.412841
H      -0.695083   -0.579187   -0.553561
H       1.612435   -1.531447   -0.739850
H       2.332192    0.057561   -0.205568
H       2.113461    0.029696    2.707284
H       0.483328    0.764722    2.801404
H       0.828380   -2.846479    1.697782
