18

C      -1.136285    0.065172    0.189602
O       0.269151    0.041682    0.004205
C       0.702065   -0.696222   -1.099151
C       1.867476   -1.635298   -0.837726
C       0.507953   -2.199791   -1.113398
C       0.748957    0.017203   -2.425444
C       0.555232    1.520622   -2.408239
O       0.981839   -0.593522   -3.447612
H      -1.663067    0.501398   -0.670368
H      -1.539811   -0.940707    0.364701
H      -1.325896    0.683759    1.069567
H       2.621657   -1.706513   -1.612246
H       2.225119   -1.646848    0.185110
H      -0.039343   -2.625644   -0.280646
H       0.328740   -2.647048   -2.083730
H       1.163321    1.980500   -1.624208
H       0.813195    1.924419   -3.387804
H      -0.487447    1.769833   -2.182065
