16

O       0.165093    1.470697   -0.089427
C       0.097840    0.082914   -0.043241
C      -1.265422   -0.677598    0.161829
C      -0.812518   -1.763186   -0.847224
O      -1.807031   -2.182619   -1.748918
C      -1.396074   -2.970129   -2.774699
N      -2.242020   -3.381505   -3.612225
C       0.200697   -0.707754   -1.355999
O       0.577664   -0.410823   -2.453145
H      -0.075177    1.754570   -0.979607
H       0.829169   -0.268748    0.693773
H      -1.496803   -1.004785    1.174358
H      -2.099284   -0.108517   -0.255111
H      -0.324383   -2.613886   -0.354839
H      -0.319373   -3.176651   -2.766286
H      -1.783775   -3.956726   -4.315826
