16

C       0.017454    1.480473    0.020185
C       0.002387   -0.009827   -0.024218
C      -0.064897   -0.838928   -1.092472
O      -0.051231   -2.133446   -0.635726
C       0.027092   -2.011520    0.728419
N       0.063780   -3.122489    1.519163
C       0.051011   -4.287788    0.979165
N       0.040951   -5.411867    1.731980
N       0.060374   -0.776381    1.135382
H       0.929795    1.846951    0.502796
H      -0.035522    1.905971   -0.985509
H      -0.828808    1.861635    0.601665
H      -0.125462   -0.704164   -2.158897
H       0.023101   -4.463997   -0.099481
H       0.203557   -6.308512    1.310989
H       0.163239   -5.321075    2.728227
