16

O      -0.061911   -0.080304   -0.029236
C      -0.033248    1.128346   -0.032406
N      -1.124119    1.983525   -0.091333
C      -0.700498    3.336693    0.265717
C      -0.107426    3.328982    1.710476
C       1.329657    2.998305    1.270464
O       1.583643    4.124521    0.372332
C       0.670544    3.437047   -0.502705
C       1.160757    2.066326    0.002531
H      -2.034080    1.625871    0.163608
H      -1.456849    4.086042    0.041938
H      -0.123045    4.305968    2.197127
H      -0.588202    2.585077    2.349793
H       2.105445    2.827560    2.014157
H       0.674651    3.761513   -1.541744
H       2.095367    1.680006   -0.393455
