19

C       0.185822    1.099236    0.610559
N      -0.474676    0.368620   -0.480106
C       0.353394   -0.349405   -1.349377
C       0.633092   -1.695142   -1.504496
C       0.129781   -2.863561   -0.722293
N       1.474894   -1.829559   -2.567168
N       1.741041   -0.656134   -3.067613
N       1.054743    0.256674   -2.346979
C       1.108389    1.659871   -2.690206
H       0.798518    0.457457    1.260041
H       0.832445    1.877920    0.197300
H      -0.579093    1.590439    1.217440
H      -1.198517   -0.236398   -0.114044
H      -0.721984   -3.351689   -1.210966
H       0.917094   -3.614333   -0.615568
H      -0.191266   -2.561961    0.280316
H       0.123687    2.104702   -2.529362
H       1.847641    2.195093   -2.084766
H       1.388983    1.734923   -3.740891
