15

N      -0.322680    0.699885    1.249745
C      -0.226548   -0.184807    0.186213
C      -0.524563   -0.171541   -1.135565
N      -0.292510   -1.446205   -1.666723
C       0.127029   -2.129619   -0.654374
N       0.475902   -3.463244   -0.690208
C       1.093152   -4.248297    0.261204
N       1.441017   -3.838726    1.413514
O       0.193043   -1.450644    0.514758
H       0.446391    0.604806    1.902970
H      -0.404245    1.659156    0.940760
H      -0.880422    0.642967   -1.744127
H       0.314401   -3.872096   -1.596440
H       1.229941   -5.265823   -0.124048
H       1.866033   -4.602727    1.934180
