17

C      -0.398503    1.160992   -0.613567
N       0.777527    1.443856    0.225072
C       0.250033    0.066616    0.148495
C      -0.324945   -0.465244    1.402295
O      -1.415230   -1.388843    1.345859
C      -1.562346   -0.213217    2.143395
C      -0.806076   -0.419983    3.504816
N      -0.222746   -1.783639    3.499574
C       0.445006   -0.683998    2.765267
H      -1.328558    1.588377   -0.251803
H      -0.287297    1.160679   -1.694303
H       1.606529    1.525688   -0.357602
H       0.824135   -0.658965   -0.426634
H      -2.406688    0.437081    1.948165
H      -0.973285    0.138679    4.415480
H       0.277330   -1.883315    4.384151
H       1.457081   -0.365313    2.973933
