19

C      -0.217691    1.572139    0.068523
C       0.032701    0.069169    0.000466
C       0.833651   -0.469818   -1.208058
C       2.235370    0.157481   -1.280694
O       2.881403   -0.431417   -0.129838
C       1.906372   -1.362024    0.375594
O       1.189139   -1.794017   -0.749428
C       0.889514   -0.522616    1.187758
O       1.522601    0.420143    2.018154
H       0.707741    2.143566    0.172489
H      -0.741124    1.923723   -0.827135
H      -0.836610    1.814836    0.936689
H      -0.930576   -0.449911   -0.016395
H       0.298972   -0.531464   -2.155118
H       2.768474   -0.141119   -2.189435
H       2.242606    1.247309   -1.197195
H       2.412604   -2.185362    0.877572
H       0.275446   -1.155839    1.833254
H       2.343696    0.655601    1.563459
