15

O      -0.121187    1.410748   -0.052111
C      -0.004931    0.039198   -0.035517
C       0.653393   -0.835324   -1.095096
N      -0.330977   -1.957944   -0.745477
C      -1.133680   -0.960751    0.039772
C      -0.269118   -0.798633    1.241588
N       0.395754   -2.056524    1.429676
C       0.400662   -2.763324    0.240071
O       0.962064   -3.799509    0.011385
H       0.649162    1.793828    0.382535
H       0.447694   -0.481475   -2.107322
H       1.711542   -1.102612   -1.000706
H      -2.210746   -0.896167   -0.042221
H      -0.633962   -0.269458    2.112746
H       1.108425   -2.231954    2.118868
