21

C      -0.129609    1.558659    0.077677
C       0.019936    0.039365    0.056489
O       0.692320   -0.404329   -1.123591
C       0.837301   -0.530713    1.235148
C       0.745163   -2.057422    1.166275
O      -0.278973   -2.667614    1.335249
C       2.278273   -0.064308    1.268771
C       2.700347    1.111968    2.113135
C       3.107504   -0.282759    2.512871
H       0.845114    2.049638    0.024668
H      -0.728745    1.890567   -0.778455
H      -0.642093    1.891223    0.986287
H      -0.975820   -0.424551    0.116127
H       0.182392   -0.116367   -1.886854
H       0.323102   -0.235421    2.158958
H       1.700857   -2.583267    0.949253
H       2.795641   -0.183445    0.322325
H       3.460822    1.778715    1.721938
H       1.942741    1.608655    2.710487
H       2.620549   -0.721262    3.378426
H       4.145735   -0.572151    2.396419
