19

N       0.198649    1.127403    0.100397
C       0.144893   -0.115273   -0.108083
C      -0.858075   -1.079762    0.485160
C      -0.744799   -2.311015   -0.422998
C       0.696654   -2.206138   -0.969563
O       1.014147   -0.801456   -0.920990
C       1.720076   -3.013005   -0.189359
C       3.144052   -2.611220   -0.145914
N       2.303572   -2.521383    1.066031
H       0.977735    1.546067   -0.410768
H      -0.565318   -1.310780    1.514950
H      -1.851495   -0.632372    0.520313
H      -0.916282   -3.254224    0.098834
H      -1.459600   -2.246398   -1.248170
H       0.747430   -2.504963   -2.022068
H       1.484177   -4.076336   -0.172298
H       3.922422   -3.367690   -0.111714
H       3.416245   -1.685207   -0.643163
H       2.048861   -1.545727    1.203681
