21

C       0.046921    1.521030    0.343046
O       0.585118    0.279721   -0.053890
C       0.747012   -0.622105    1.007915
C      -0.525747   -1.312666    1.607788
C       0.092999   -2.698017    1.265979
C       0.147566   -3.775437    2.315590
O      -0.390060   -3.181043   -0.009897
C       0.707205   -2.552763   -0.718168
C       1.309308   -1.992099    0.579509
H       0.693792    2.026036    1.077809
H      -0.026749    2.144710   -0.550922
H      -0.955376    1.413394    0.783433
H       1.360108   -0.165051    1.800189
H      -0.691884   -1.118520    2.670625
H      -1.446899   -1.127599    1.050906
H      -0.863043   -4.141682    2.529896
H       0.749441   -4.622545    1.973444
H       0.574977   -3.393725    3.248548
H       1.330433   -3.300038   -1.223554
H       0.367540   -1.807639   -1.443953
H       2.357312   -2.204354    0.788200
