18

C      -1.150950    0.547397    0.823213
C      -0.070552   -0.292549    0.184882
N       0.980368    0.409896   -0.575159
C       1.347134   -0.335878    0.630338
C       1.892662    0.493036    1.800829
C       1.597110   -0.157011    3.083134
C       1.335343   -0.703921    4.119743
C       3.331821    0.727975    1.635575
C       4.508743    0.904163    1.475502
H      -0.760379    1.504806    1.174832
H      -1.942679    0.762337    0.097863
H      -1.600276    0.022073    1.672058
H      -0.434026   -1.228887   -0.238105
H       1.242828   -0.100588   -1.413079
H       1.868762   -1.283102    0.511926
H       1.386913    1.466126    1.774061
H       1.111728   -1.180047    5.042173
H       5.549153    1.069903    1.343091
