19

C      -0.333041    1.305176   -0.372088
O      -0.183919   -0.092803   -0.317689
C       0.845774   -0.563506   -1.163256
C       0.888089   -2.062382   -1.022781
O       0.161158   -2.853687   -1.974707
C       1.578344   -2.973585   -1.952397
C       2.337965   -2.564152   -3.179092
C       1.717047   -2.623724   -4.510501
O       1.958102   -1.372823   -3.859498
H       0.584725    1.827423   -0.055907
H      -0.589316    1.650593   -1.385870
H      -1.144107    1.574127    0.308985
H       0.672058   -0.289892   -2.210359
H       1.817929   -0.135197   -0.859037
H       0.765437   -2.399048    0.007938
H       1.947264   -3.916477   -1.539044
H       3.415976   -2.715742   -3.101485
H       2.331061   -2.818388   -5.387790
H       0.669932   -2.908361   -4.579555
