21

C      -0.137280    1.333896    0.137749
C       0.184776   -0.133789   -0.037716
C       0.811876   -0.737345   -1.289155
C       1.912265    0.166617   -1.892340
C       2.690266    0.118089   -0.532527
C       1.555071   -0.743390    0.032652
O       1.733119   -2.036839    0.521528
C       0.869527   -2.902404   -0.236029
C       0.556065   -2.197076   -1.598856
H       0.642945    1.983538   -0.267096
H      -1.074878    1.591021   -0.367548
H      -0.250455    1.579066    1.199207
H      -0.568789   -0.787714    0.394497
H       2.454258   -0.326267   -2.702504
H       1.593145    1.151405   -2.246054
H       3.617887   -0.451892   -0.606118
H       2.897288    1.064625   -0.024411
H       1.378082   -3.864089   -0.353626
H      -0.058110   -3.081665    0.324184
H      -0.456479   -2.440837   -1.936466
H       1.251632   -2.535069   -2.374423
