20

C      -0.081678    1.311682    0.517959
C       0.019310    0.071733   -0.373114
N      -1.255247   -0.610196   -0.547020
C      -1.557670   -1.784805    0.072421
O      -0.769186   -2.394325    0.774293
C      -2.985817   -2.287058   -0.159512
C      -3.035884   -3.819941   -0.204314
C      -4.430872   -4.349499    0.016426
O      -5.000810   -5.131978   -0.698763
H       0.895881    1.795434    0.609344
H      -0.780869    2.046208    0.103325
H      -0.425981    1.040374    1.520002
H       0.413287    0.343212   -1.359635
H       0.696313   -0.663210    0.066709
H      -1.972426   -0.152824   -1.086311
H      -3.589737   -1.924221    0.684189
H      -3.419456   -1.851845   -1.066364
H      -2.647097   -4.214563   -1.146576
H      -2.394137   -4.184711    0.609370
H      -4.924496   -3.951307    0.936416
