23

C      -0.784291    1.442439    0.110742
C      -0.090368    0.086028    0.006136
C      -1.084701   -0.966905   -0.500555
C       1.248166    0.048046   -0.799421
C       1.838494   -0.890123    0.280572
O       3.193829   -0.795592    0.650953
C       0.715307   -0.424035    1.260539
C       1.189954    0.659513    2.226894
O       0.026000   -1.439651    1.967996
H      -0.104605    2.235440    0.434905
H      -1.190694    1.736257   -0.863736
H      -1.621286    1.405560    0.817346
H      -1.488387   -0.657897   -1.471379
H      -0.624487   -1.950257   -0.622529
H      -1.918403   -1.083260    0.197417
H       1.208197   -0.324713   -1.825668
H       1.751457    1.022015   -0.802165
H       1.675760   -1.941042    0.028242
H       3.412927    0.135686    0.757202
H       1.684752    1.494417    1.719586
H       0.347025    1.062248    2.794506
H       1.913351    0.233688    2.932255
H       0.603880   -1.758740    2.669748
