18

C      -0.565748    1.293148    1.415049
C      -0.027109    0.536529    0.200315
N       1.229941   -0.129422    0.567276
C       1.207794   -1.400663    1.288696
C       1.661212   -1.336071   -0.130071
C      -1.116933   -0.406260   -0.345782
N      -1.359320   -0.301154   -1.683607
O      -1.708042   -1.206399    0.358986
H       0.228127    1.907173    1.846817
H      -1.403115    1.938961    1.134034
H      -0.921654    0.583233    2.165474
H       0.240804    1.257122   -0.583808
H       1.936461   -1.481840    2.091023
H       0.246231   -1.869163    1.472836
H       1.003777   -1.777280   -0.876560
H       2.718294   -1.375219   -0.379715
H      -0.875234    0.356076   -2.268794
H      -2.061771   -0.895609   -2.093904
