18

C      -0.016644    1.527074    0.008146
C      -0.022206    0.035671   -0.054061
C      -0.026422   -0.783560   -1.121129
N      -0.091181   -2.176152   -0.818374
C       1.178457   -2.652186   -0.223936
C       0.022032   -2.252414    0.646748
C      -0.774512   -3.275660    1.413743
C       0.013155   -0.821029    1.156101
O      -0.019945   -0.472072    2.316849
H       0.856417    1.889040    0.561810
H      -0.007684    1.974999   -0.988820
H      -0.897553    1.894366    0.546140
H       0.034171   -0.506578   -2.167768
H       1.384916   -3.712537   -0.342636
H       2.037117   -1.991065   -0.299664
H      -0.699606   -4.264211    0.954745
H      -0.401946   -3.328002    2.440834
H      -1.830482   -2.992337    1.454664
