20

C      -0.050072    1.565142   -0.000657
C       0.081075    0.042329    0.040370
C       0.758291   -0.526901   -1.224876
C       0.958321   -2.035888   -1.104165
O       1.741014   -2.359437    0.031189
C       1.129560   -1.968023    1.249503
C       0.800907   -0.488442    1.263833
N       1.069690    0.321179    2.212415
O       1.693413   -0.305672    3.305107
H       0.934658    2.041255   -0.027021
H      -0.603613    1.869139   -0.894863
H      -0.573196    1.943746    0.879907
H      -0.932063   -0.392699    0.075017
H       0.150535   -0.296389   -2.107735
H       1.735739   -0.048647   -1.362954
H      -0.020382   -2.545697   -1.050483
H       1.497235   -2.435606   -1.968043
H       0.200131   -2.543220    1.413397
H       1.828743   -2.213320    2.047284
H       1.868762    0.439865    3.888411
