20

C      -0.742110    1.283947   -0.007506
C       0.181672    0.068038    0.013362
C       1.170551   -0.015536   -1.176652
C       2.385353   -0.710883   -0.608020
C       3.476483   -1.247264   -1.472334
C       2.330470   -0.716528    0.737165
C       1.085928   -0.030293    1.269493
C       3.332833   -1.250061    1.590542
N       4.136807   -1.682354    2.305513
H      -0.165974    2.215942    0.021417
H      -1.357437    1.299454   -0.913183
H      -1.418626    1.283581    0.853410
H      -0.433567   -0.839659   -0.013589
H       0.752140   -0.541895   -2.042421
H       1.454922    0.985586   -1.536895
H       3.901961   -0.450356   -2.095287
H       4.281211   -1.693355   -0.883741
H       3.086363   -2.005371   -2.162652
H       1.338670    0.964184    1.663448
H       0.614190   -0.581291    2.088834
