15

N      -0.070649    1.567010   -0.076835
C       0.044892    0.132132   -0.041324
C      -1.316898   -0.666017    0.144595
N      -0.935561   -1.453391   -1.045970
C       0.172673   -0.709688   -1.321895
N       0.690478   -0.915086   -2.488102
N      -0.166819   -1.901575   -2.982606
C      -1.263898   -2.218962   -2.174877
O      -2.190551   -2.961031   -2.400376
H       0.845456    1.999002   -0.135234
H      -0.593081    1.869292   -0.893816
H       0.782084   -0.144818    0.716219
H      -1.423605   -1.254624    1.057069
H      -2.199314   -0.040892   -0.010864
H      -0.060294   -2.215277   -3.931830
