21

C      -0.811391    1.314046    0.128388
C       0.046780    0.063917    0.003591
C       0.744628   -0.066206   -1.360652
C       1.662282   -1.286547   -1.365127
C       3.101502   -1.250879   -0.910312
C       3.310708   -0.135724    0.111112
C       2.119969   -0.724442    0.951163
O       0.974395    0.094102    1.090043
C       2.028210   -1.899102   -0.036175
H      -0.203779    2.212626   -0.018483
H      -1.612699    1.307925   -0.617256
H      -1.262135    1.367380    1.123124
H      -0.594251   -0.826096    0.121718
H      -0.025685   -0.172171   -2.131426
H       1.292205    0.856179   -1.589688
H       1.480708   -2.014135   -2.150249
H       3.879930   -1.741773   -1.481537
H       4.257831   -0.227135    0.648733
H       3.195978    0.897683   -0.229630
H       2.422668   -1.002130    1.962820
H       1.857981   -2.939464    0.211170
