17

C       0.071110    1.541340    0.054109
C       0.008552    0.043005   -0.023697
C       0.627291   -0.825028   -1.172783
C       0.612193   -1.810035    0.025902
O       0.907540   -0.682109    0.897026
C      -0.917860   -1.987987    0.256004
C      -1.317269   -0.705816    0.221883
C      -1.604871   -3.198352    0.427785
C      -2.147709   -4.266213    0.569309
H       1.088703    1.896043   -0.127700
H      -0.592823    1.988687   -0.692505
H      -0.243717    1.886644    1.043784
H       0.020215   -1.049360   -2.052137
H       1.637071   -0.500934   -1.436883
H       1.270326   -2.669444    0.137216
H      -2.303659   -0.278575    0.326634
H      -2.640286   -5.197799    0.698418
