21

C      -0.142114    1.605731   -0.074933
C       0.021853    0.096946    0.001290
C       1.198693   -0.599682   -0.735903
O       2.347611    0.091838   -0.226984
C       2.231117   -0.329996    1.150405
C       3.000313    0.561770    2.082629
C       2.459208   -1.857381    1.013680
C       1.105678   -1.798367    0.297482
C       0.658536   -0.605317    1.215145
H       0.820138    2.106706    0.053388
H      -0.553263    1.909044   -1.044505
H      -0.826628    1.966636    0.700609
H      -0.915226   -0.419519   -0.239000
H       1.258211   -0.716690   -1.817568
H       2.616831    1.585958    2.053421
H       2.928491    0.194937    3.110677
H       4.057961    0.585563    1.799632
H       3.354834   -2.174665    0.472744
H       2.373974   -2.381516    1.970071
H       0.477788   -2.655072    0.061025
H       0.187870   -0.723105    2.190598
