25

C      -0.135572    1.435482   -0.088126
C      -0.061219   -0.088517    0.043044
C       0.805384   -0.585532    1.217353
C       0.124902   -0.361462    2.580502
C       1.078809   -0.354006    3.770498
O       0.304443   -0.128371    4.939976
C       1.160350   -2.062722    1.025641
O       1.972668   -2.198596   -0.121966
C       2.307402   -3.534600   -0.404135
H       0.861273    1.864893   -0.238757
H      -0.752732    1.723742   -0.944944
H      -0.569001    1.908967    0.798913
H      -1.074005   -0.501825    0.149718
H       0.350604   -0.507792   -0.880118
H       1.753169   -0.028069    1.196034
H      -0.403580    0.597241    2.582837
H      -0.640201   -1.130790    2.748777
H       1.625116   -1.307805    3.839816
H       1.830884    0.440138    3.631476
H       0.897421   -0.124028    5.696849
H       1.690382   -2.459402    1.907266
H       0.235650   -2.657528    0.912856
H       1.413591   -4.150102   -0.595098
H       2.933467   -3.534878   -1.299979
H       2.869991   -3.999477    0.421643
