18

C       0.066377   -1.154661   -0.149557
C       0.061577    0.045332   -0.110742
C       0.010821    1.497043   -0.067616
O       1.349545    2.006101    0.071300
C       1.441879    3.341281    0.121819
N       0.456728    4.142439    0.049939
C       0.977661    5.508979    0.179785
C       2.524670    5.422090    0.033504
C       2.819825    3.933303    0.306626
H       0.073882   -2.216073   -0.183711
H      -0.438764    1.908533   -0.978603
H      -0.599057    1.851339    0.771335
H       0.522012    6.157236   -0.575547
H       0.681934    5.911407    1.157804
H       2.820405    5.682148   -0.987042
H       3.053893    6.096725    0.709796
H       3.166815    3.745082    1.329842
H       3.555077    3.485993   -0.367148
