18

C      -0.121217    1.536974   -0.197761
C       0.002373    0.045581    0.024128
C       1.303621   -0.662123   -0.159126
N       0.708685   -0.538767    1.168518
C       1.358951    0.309860    2.126978
C       0.703351    0.444662    3.475193
C       1.966305   -0.370452    3.324928
H       0.825559    2.061973   -0.049102
H      -0.450084    1.734036   -1.223659
H      -0.862346    1.976966    0.478546
H      -0.903903   -0.506762   -0.222914
H       1.349454   -1.666054   -0.574126
H       2.170297   -0.040849   -0.385066
H       1.890707    1.185458    1.751133
H       0.756622    1.402206    3.981122
H      -0.223272   -0.098480    3.619585
H       1.869589   -1.448876    3.368065
H       2.892445    0.024753    3.727207
