15

C      -0.360132    1.089522   -0.193607
C       1.098347    1.063102    0.221894
C       0.365255   -0.209792   -0.027464
O       0.099684   -0.983519    1.137005
C      -0.893085   -1.857904    1.068346
C      -1.355001   -2.695585    2.056404
N      -2.372537   -3.406778    1.496813
N      -2.586454   -3.112438    0.307284
O      -1.574500   -2.030185   -0.039761
H      -1.086096    1.349338    0.567955
H      -0.621928    1.399398   -1.198599
H       1.859207    1.360293   -0.490124
H       1.321492    1.301140    1.255423
H       0.593533   -0.818590   -0.894962
H      -1.031835   -2.819990    3.073635
