13

N      -0.000973    1.405658    0.168152
C      -0.023747    0.032029    0.062193
C      -1.195278   -0.733565    0.040405
C      -1.102270   -2.119173   -0.013633
N       0.046040   -2.800523   -0.049221
C       1.169994   -2.074591   -0.032346
C       1.171546   -0.696054    0.021385
F       2.329299   -0.008994    0.025857
H       0.865978    1.847815   -0.095113
H      -0.824164    1.896421   -0.142997
H      -2.165023   -0.247051    0.069102
H      -2.011855   -2.714676   -0.030065
H       2.118993   -2.603874   -0.065762
