19

C      -0.165669    1.411554    0.207956
C       1.224295    0.846284   -0.067161
C       0.029490   -0.047184   -0.029141
O      -0.144182   -1.014042    1.012180
C      -0.506920   -2.026100    0.037319
C      -1.955785   -2.527732    0.140838
O      -2.605521   -2.096700   -1.048402
C      -2.017676   -0.862614   -1.442713
C      -0.519424   -0.981109   -1.101842
H      -0.385373    1.718014    1.225041
H      -0.646932    2.009284   -0.559554
H       1.688660    1.056429   -1.025564
H       1.911489    0.785454    0.769782
H       0.241604   -2.822605   -0.000375
H      -2.042299   -3.616756    0.186138
H      -2.416207   -2.091132    1.040079
H      -2.216230   -0.731495   -2.509313
H      -2.469448   -0.020457   -0.895864
H       0.114600   -1.159732   -1.970074
