16

O      -0.036010   -0.039817    0.005362
C       0.022755    1.169243    0.010001
C      -1.219496    2.107896    0.031417
C      -0.703599    3.576987    0.030717
C       0.776314    3.363611    0.008872
C       1.189250    2.048906   -0.002705
C       2.617541    2.037131   -0.023014
C       3.009185    3.351149   -0.022680
N       1.874515    4.158644   -0.003134
H      -1.844592    1.886985   -0.838460
H      -1.820207    1.879230    0.916336
H      -1.060448    4.138394   -0.841074
H      -1.035614    4.130502    0.917244
H       3.269602    1.178458   -0.036035
H       3.991633    3.796361   -0.034577
H       1.885121    5.164459    0.001098
