16

C       0.167276    1.381408    0.064597
O       0.237658   -0.024649    0.088251
C       0.521178   -0.577604   -1.171143
C       0.536230   -2.086564   -1.052712
C       1.420117   -2.861858   -1.948801
O       1.776325   -2.652148   -0.589654
C      -0.665922   -2.700809   -0.541136
C      -1.679027   -3.204876   -0.137837
H       1.121437    1.833086   -0.249743
H      -0.622803    1.738950   -0.614883
H      -0.062441    1.711752    1.079939
H      -0.240148   -0.277793   -1.912224
H       1.504771   -0.245158   -1.540454
H       1.134973   -3.877765   -2.214277
H       2.026208   -2.333543   -2.684586
H      -2.569318   -3.649872    0.232787
