19

C       0.279413    1.464511   -0.339522
C       0.071312   -0.012525   -0.048987
O       0.910883   -0.876721   -0.873046
C       1.354325   -1.617548    0.291121
C       2.709527   -1.116517    0.836942
C       1.949314   -0.144064    1.795195
C       0.591037   -0.661197    1.250607
C      -1.373666   -0.394467   -0.354719
O      -2.223869   -0.612076    0.468167
H       1.335111    1.731043   -0.249381
H      -0.039055    1.699841   -1.360784
H      -0.304954    2.077674    0.354239
H       1.182482   -2.691213    0.184374
H       3.285263   -1.884587    1.359898
H       3.342261   -0.658212    0.073865
H       2.091134   -0.387469    2.850281
H       2.148194    0.922641    1.669616
H      -0.177769   -0.963015    1.958829
H      -1.571404   -0.475887   -1.447954
