19

C       0.182692    1.504625    0.067563
C      -0.208690    0.045121   -0.141045
N       0.549695   -0.550722   -1.225852
C       0.729037   -1.880994   -1.368983
N       0.394017   -2.807208   -0.541171
C       0.825365   -4.109934   -1.070621
C       1.502197   -3.880816   -2.440500
C       1.409457   -2.374840   -2.618900
O       1.769349   -1.681146   -3.539145
H       1.244063    1.594529    0.316849
H      -0.006611    2.099291   -0.833593
H      -0.402551    1.942511    0.880873
H      -0.008527   -0.546532    0.757119
H      -1.290029   -0.034124   -0.330700
H       0.763758   -0.000649   -2.045136
H       1.504430   -4.583129   -0.351592
H      -0.046028   -4.770268   -1.150369
H       2.550969   -4.192084   -2.469343
H       0.997122   -4.384967   -3.269853
