18

C      -0.094050    1.413718   -0.066637
N      -0.207718   -0.028454   -0.236618
C       0.586250   -0.625047   -0.989299
O       1.646713   -0.164767   -1.751839
C       1.937844   -1.502485   -2.245277
C       0.782144   -2.095238   -1.380426
C       1.221506   -2.986207   -0.209567
C      -0.311388   -2.683305   -2.135245
C      -1.203161   -3.184954   -2.765349
H       0.730976    1.868144   -0.627264
H      -1.032895    1.883436   -0.379326
H       0.036664    1.637898    0.997468
H       1.796916   -1.565873   -3.325585
H       2.945229   -1.818280   -1.962122
H       2.058402   -2.528858    0.326248
H       0.392197   -3.113644    0.489666
H       1.527583   -3.971466   -0.571994
H      -2.001429   -3.617699   -3.316165
