19

O      -0.226455    1.549103    0.221218
C      -0.003494    0.159434    0.033657
C      -1.352329   -0.532879    0.155622
C      -1.272392   -2.039253   -0.014796
O      -0.225139   -2.638363   -0.082551
C      -2.615903   -2.753685   -0.144461
C      -3.076244   -2.945135   -1.618900
C      -2.887155   -4.445132   -1.311452
O      -2.535499   -4.166715    0.060133
H       0.623744    1.995895    0.175571
H       0.432756   -0.053105   -0.953569
H       0.686312   -0.250589    0.783732
H      -1.792139   -0.318183    1.139369
H      -2.060775   -0.116782   -0.573589
H      -3.357532   -2.283260    0.515253
H      -4.101151   -2.632770   -1.820357
H      -2.411626   -2.528619   -2.377468
H      -3.787837   -5.065293   -1.383450
H      -2.066901   -4.934454   -1.848421
