19

C      -0.006886    1.529201    0.188802
N       1.511800    1.308231    0.134127
C       1.205289    0.056044    0.994665
C       0.079622   -0.001452   -0.077005
C      -0.948732   -0.887066   -0.782257
C      -0.734697   -0.457726   -2.250466
N      -0.860939    0.991315   -2.475880
C       0.497430    0.415273   -2.405467
C       1.188269    0.328801   -1.060571
H      -0.351999    1.839575    1.180198
H      -0.391873    2.175017   -0.593328
H       1.986439   -0.709149    0.963004
H       0.934702    0.316156    2.021262
H      -0.719010   -1.953362   -0.675858
H      -1.979498   -0.722743   -0.454422
H      -1.041321   -1.131157   -3.045279
H      -1.084868    1.167689   -3.451703
H       1.084316    0.376397   -3.317813
H       2.004366   -0.396743   -1.160498
