15

O       0.831875   -0.057583   -0.424397
C       0.355186    1.022954   -0.205213
C       1.192011    2.258361    0.143979
O       2.468866    1.874777    0.632423
C       3.472727    1.541071   -0.224569
O       4.494717    1.097521    0.212662
C       3.239586    1.809979   -1.707090
C       2.235176    2.896827   -1.967171
C       1.255354    3.119231   -1.096627
H      -0.735652    1.220636   -0.292272
H       0.708328    2.792157    0.969186
H       4.214353    2.025676   -2.149533
H       2.899392    0.864138   -2.151666
H       2.335759    3.489434   -2.870979
H       0.493237    3.876011   -1.240644
