17

C       0.006754    1.423410   -0.003474
C      -0.000233   -0.069812   -0.006396
C      -0.978427   -0.975298    0.752476
C       0.526899   -1.082954    0.970548
C       0.531425   -2.041705   -0.238142
C      -1.032250   -2.154099   -0.248717
C      -0.983791   -1.496089   -1.639533
N       0.332888   -0.877642   -1.230049
H       0.985127    1.812389   -0.303101
H      -0.741776    1.821316   -0.698839
H      -0.226009    1.808860    0.994661
H      -1.742791   -0.602238    1.420938
H       1.143615   -0.983653    1.853554
H       1.241669   -2.827174   -0.489419
H      -1.602447   -3.048523    0.002294
H      -0.811020   -2.208815   -2.451965
H      -1.766627   -0.785503   -1.923968
