18

C      -0.507337    0.883882    0.268133
C       0.737144    0.157102   -0.218660
O       1.438860   -0.475728    0.873901
C       1.006621   -1.687939    1.226220
O       0.100348   -2.288554    0.708566
C       1.817941   -2.242782    2.391027
N       2.688002   -1.537078    2.981335
O       1.429298   -3.512647    2.627134
C       2.069226   -4.199028    3.692246
H      -0.253530    1.609075    1.046331
H      -0.970117    1.420485   -0.566261
H      -1.236625    0.174807    0.666588
H       0.484608   -0.602349   -0.962583
H       1.466980    0.851837   -0.639728
H       3.144126   -2.034060    3.746180
H       3.148795   -4.287149    3.518655
H       1.897195   -3.695494    4.651464
H       1.623737   -5.193444    3.719465
