18

C       0.196027    1.332317    0.195416
O      -0.204048    0.008744   -0.129555
C       0.490816   -0.538378   -1.180063
C       1.932560   -1.008860   -1.084934
C       0.834153   -1.978282   -1.458100
C       0.529889   -3.285773   -0.807570
O       0.535254   -1.833339   -2.858249
C       0.081245   -0.468004   -2.650280
H       1.265627    1.376985    0.440444
H      -0.004523    2.031461   -0.628293
H      -0.388129    1.635204    1.066947
H       2.679682   -0.718109   -1.819201
H       2.288288   -1.105360   -0.063168
H       0.682183   -3.215472    0.272943
H      -0.506559   -3.581156   -0.996491
H       1.186785   -4.072673   -1.194653
H      -1.004134   -0.393396   -2.784240
H       0.593631    0.246215   -3.305467
