19

C      -0.192687    1.530260   -0.012467
C       0.057028    0.027698    0.014150
O       0.865526   -0.374344   -1.119571
C       2.091440   -0.820999   -0.601615
C       2.061359   -2.133689    0.264523
C       3.133336   -1.481629    1.164418
C       2.347737   -0.198491    0.801581
C       0.877820   -0.506226    1.195175
O       0.862108   -1.946970    1.035165
H       0.738916    2.095083    0.089519
H      -0.656301    1.813045   -0.961570
H      -0.867344    1.823048    0.799386
H      -0.890982   -0.518602   -0.037351
H       2.878915   -0.753858   -1.351013
H       2.106410   -3.148250   -0.126826
H       3.154823   -1.809751    2.204658
H       4.136155   -1.483487    0.731002
H       2.722658    0.811440    0.954122
H       0.530187   -0.225480    2.190071
