20

C      -0.183647    1.587595    0.005349
C       0.083957    0.072743    0.046358
C       0.737306   -0.454413   -1.198726
C       2.060178   -0.777771   -1.416955
C       3.519335   -1.033379   -1.067613
C       3.647155   -1.523013   -2.562910
N       2.222247   -1.190219   -2.704357
C       1.037613   -1.169196   -3.383079
C       0.105975   -0.703868   -2.466812
H       0.750606    2.145219   -0.115734
H      -0.832954    1.847109   -0.836847
H      -0.669009    1.929431    0.925946
H       0.714323   -0.157402    0.913531
H      -0.865578   -0.451165    0.214629
H       4.125397   -0.155673   -0.826235
H       3.711446   -1.810604   -0.322688
H       4.309215   -0.931697   -3.202325
H       3.869689   -2.586912   -2.687757
H       0.937608   -1.459739   -4.415959
H      -0.943265   -0.551757   -2.679043
