16

C      -0.023467    1.385324   -0.005738
O       0.024657   -0.046966    0.037232
C       0.657530   -0.555490    1.100522
O       1.172099    0.072940    1.993577
N       0.657109   -1.939849    1.061802
C       1.248128   -2.865315    2.040069
C       0.746469   -4.035579    1.148793
C       0.175805   -2.955365    0.208943
O      -0.427621   -2.927243   -0.819736
H       0.985425    1.804045   -0.035154
H      -0.566092    1.629578   -0.918342
H      -0.546029    1.779764    0.869106
H       2.332000   -2.764371    2.125779
H       0.792136   -2.792480    3.029551
H       1.523389   -4.651214    0.692767
H      -0.013819   -4.679007    1.594363
