17

O       0.263287    1.528767   -0.418312
C      -0.017788    0.217124    0.028175
C       0.113272   -0.039560    1.577933
C      -1.299353   -0.620139    1.537587
C      -1.795260   -1.873322    2.104346
O      -2.215777   -0.595265    2.610700
C      -1.555832   -0.022813    0.155063
C       0.676371   -0.785864   -0.772024
C       1.284319   -1.591366   -1.426212
H       1.210675    1.591741   -0.583008
H       0.929604   -0.677326    1.920714
H       0.136586    0.921316    2.099224
H      -2.561968   -2.440831    1.578379
H      -1.161848   -2.453853    2.773867
H      -2.060681    0.944565    0.222974
H      -2.032349   -0.641946   -0.605630
H       1.809933   -2.305268   -2.011302
