15

C       0.265997    1.345507    0.189221
C      -0.004532   -0.136726    0.077817
C       0.683482   -0.961121   -0.997741
N       1.032369   -1.127708    0.382301
C       2.285072   -0.845956    0.913829
O       3.329576   -1.091062    0.366044
C      -1.375866   -0.597413    0.479627
O      -2.285078    0.147823    0.736118
H       1.273689    1.589429   -0.156711
H      -0.458874    1.897874   -0.413731
H       0.154803    1.686099    1.222522
H       0.160453   -1.791149   -1.465836
H       1.389593   -0.434552   -1.634774
H       2.211909   -0.434234    1.937191
H      -1.481174   -1.703890    0.519351
