16

C      -0.284869   -3.880631   -0.400047
C      -0.180092   -2.685285   -0.260308
C      -0.062274   -1.339406   -0.103646
C       0.043668   -0.140418    0.037325
C       0.184675    1.284015    0.222087
C      -0.019647    1.894859    1.650164
C       1.151411    2.868477    1.356735
C       1.617342    1.917857    0.223317
H      -0.377813   -4.930882   -0.522636
H      -0.449352    1.815728   -0.496745
H      -1.003242    2.313829    1.870991
H       0.238458    1.165642    2.421632
H       0.794457    3.824205    0.962614
H       1.854934    3.067596    2.167092
H       2.357925    1.195409    0.574234
H       1.963556    2.355514   -0.714953
