18

O       0.079725    1.389125   -0.075981
C       0.022647   -0.023580   -0.160568
C      -1.384985   -0.565779    0.132916
C      -1.462013   -2.051617    0.016223
C      -1.635426   -2.904720   -1.190290
C      -2.595875   -3.057164   -0.001766
C      -1.846736   -3.713505    1.107277
N      -2.072056   -4.657069    1.899587
O      -0.758347   -2.840853    1.030649
H      -0.028412    1.636261    0.847894
H       0.307961   -0.275852   -1.187035
H       0.751890   -0.503082    0.508332
H      -1.688126   -0.269173    1.145387
H      -2.094570   -0.111377   -0.566875
H      -2.082792   -2.422073   -2.054261
H      -0.917155   -3.686711   -1.414667
H      -3.665961   -2.937048   -0.083900
H      -1.302191   -4.775094    2.560363
