13

O      -0.020891    0.021249    0.031466
C       0.013507    1.211202    0.012782
O      -1.096147    2.025795    0.037742
C      -0.553063    3.373213    0.048645
O       0.607343    3.278931   -0.732619
C       1.200765    2.202059   -0.000862
C       1.208525    2.751434    1.446236
O       1.279512    4.172551    1.510932
C      -0.009040    3.564012    1.480326
H      -1.276005    4.067947   -0.370108
H       2.122865    1.853870   -0.455495
H       1.598479    2.177566    2.278514
H      -0.661124    3.685098    2.337179
