15

N      -0.047905    1.345600   -0.154911
C      -0.003799    0.089800    0.030028
C      -1.277678   -0.691623    0.248969
C      -1.127790   -1.958755    1.057198
N      -2.107997   -2.409067    1.727714
N       0.118876   -2.572930    0.928181
C       1.281576   -2.005342    0.429415
O       2.336706   -2.597606    0.402809
N       1.147774   -0.697687   -0.012098
H       0.878111    1.740787   -0.330876
H      -2.028403   -0.050543    0.706028
H      -1.657316   -0.979756   -0.741099
H      -1.882818   -3.291210    2.192217
H       0.261954   -3.486163    1.335666
H       2.025299   -0.272336   -0.275793
