19

C      -0.116239    1.532045   -0.083116
C      -0.035290    0.035664   -0.149146
C       0.754728   -0.898871   -1.098599
C       2.234435   -0.820899   -0.582576
C       2.063585   -0.810643    0.994868
C       0.558646   -0.900413    0.949338
O      -0.646905   -0.950957    1.756574
C      -1.099844   -0.991873    0.321855
C       0.067070   -1.890842   -0.138631
H       0.876921    1.989877   -0.155256
H      -0.728114    1.940018   -0.894878
H      -0.563954    1.837930    0.868624
H       0.610580   -0.916333   -2.179679
H       2.820970   -1.682810   -0.913453
H       2.743495    0.080095   -0.937187
H       2.548018   -1.663323    1.476943
H       2.437122    0.110002    1.451272
H      -2.176846   -1.055497    0.170230
H       0.137333   -2.976242   -0.078089
