23

C       0.063428    1.570330    0.008568
C      -0.000109    0.035737    0.063638
C       0.870002   -0.494147    1.213527
C      -1.466588   -0.492688    0.067187
C      -2.282952   -0.003823    1.267148
O      -2.151770    0.027719   -1.082823
C      -1.490432   -2.041063   -0.004623
C      -2.882925   -2.617233   -0.166282
O      -3.303286   -3.553089    0.466968
H       1.079104    1.898060   -0.234002
H      -0.619056    1.968307   -0.745394
H      -0.199530    2.016303    0.973394
H       0.436229   -0.344796   -0.874701
H       0.946652   -1.584469    1.217503
H       1.885754   -0.095593    1.126083
H       0.481123   -0.178397    2.187487
H      -2.307505    1.087025    1.301712
H      -3.315054   -0.357104    1.189592
H      -1.868175   -0.378856    2.205995
H      -1.616108   -0.166975   -1.860488
H      -0.906300   -2.355218   -0.884083
H      -1.037119   -2.504737    0.874130
H      -3.504876   -2.115062   -0.936282
