15

O       0.063334    1.400787    0.041137
C       0.087190    0.007912    0.058740
C      -1.346391   -0.535990    0.058875
O      -2.270391    0.251516    0.054640
N      -1.573520   -1.920813    0.052292
C      -2.937096   -2.338895   -0.044202
N      -3.308576   -3.484231    0.328071
C      -0.494423   -2.839875    0.058105
O      -0.585878   -4.015880   -0.133317
H      -0.874976    1.648228    0.043533
H       0.624222   -0.386844   -0.817400
H       0.614497   -0.362150    0.952249
H      -3.558900   -1.539965   -0.446984
H      -4.310087   -3.589360    0.164520
H       0.465589   -2.339634    0.257221
