19

C      -0.183572    1.550206   -0.120399
C       0.092609    0.047894    0.044420
C       0.796470   -0.533237   -1.153285
C       0.067362   -1.064077   -2.382481
O       0.349031   -0.659559   -3.689462
C       0.982761   -2.003530   -1.703423
C       2.433930   -1.706532   -2.113517
C       2.238083   -0.299739   -1.506748
O       3.000528    0.581781   -1.216924
H       0.751483    2.092468   -0.283756
H      -0.840881    1.739369   -0.976278
H      -0.668543    1.959541    0.770843
H       0.708733   -0.111344    0.937814
H      -0.846771   -0.492688    0.214191
H      -0.993280   -1.229743   -2.182535
H       0.070747    0.256766   -3.790226
H       0.644953   -2.918334   -1.233369
H       3.180046   -2.266005   -1.542662
H       2.659038   -1.764142   -3.179453
