14

O      -0.127768   -0.029589    0.210088
C      -0.014858    1.143594   -0.019497
C       1.334665    1.830449   -0.207369
C       1.312560    2.850808   -1.295200
N       0.398325    2.916414   -2.215037
N       0.776869    3.979495   -3.001150
C       1.937874    4.601816   -2.590783
O       2.527359    5.548088   -3.059499
N       2.260861    3.832956   -1.460521
H      -0.890462    1.820779   -0.079101
H       1.583981    2.319167    0.746663
H       2.094934    1.061359   -0.380438
H       0.221517    4.244596   -3.795272
H       3.078958    4.001820   -0.901087
