11

N       0.054399   -3.715917   -0.018394
C       0.029222   -2.554333   -0.011717
C       0.005695   -1.190719   -0.003958
C      -0.016812    0.018028    0.002940
C       0.001153    1.431378    0.010471
N      -1.129441    2.122310    0.028788
O      -0.747285    3.443070    0.031106
C       0.593309    3.527754    0.014346
C       1.143483    2.290039    0.000493
H       1.001704    4.525974    0.014561
H       2.182594    2.011065   -0.014394
