22

C       0.593374   -0.314168    1.380657
N      -0.021337    0.024587    0.097654
C       0.972873   -0.008477   -0.969324
C      -1.269009   -0.707358   -0.136230
C      -2.377625   -0.051315    0.701908
O      -2.478592    1.320653    0.394612
C      -1.779671   -0.920877   -1.584496
O      -2.094550   -2.298479   -1.290862
C      -1.329460   -2.258518   -0.070921
H       1.411141    0.382540    1.587030
H      -0.131321   -0.226692    2.192379
H       1.008914   -1.337059    1.401252
H       1.351817   -1.020732   -1.195991
H       0.573862    0.425149   -1.887836
H       1.828191    0.601399   -0.662968
H      -3.335644   -0.524101    0.462783
H      -2.195847   -0.215533    1.776908
H      -1.559050    1.619829    0.332623
H      -2.658702   -0.334500   -1.868901
H      -1.026381   -0.850630   -2.376077
H      -0.355160   -2.755526   -0.181814
H      -1.867246   -2.706300    0.773305
