13

N       0.456469    1.173963   -0.243789
C       0.104962    0.000237    0.068354
N      -1.215722   -0.450917    0.063658
C      -2.379889    0.323500   -0.042490
O      -2.435030    1.515601    0.013119
N      -3.502520   -0.523455   -0.229883
C      -4.839733   -0.163002   -0.101742
O      -5.265235    0.877975    0.312268
H       1.468620    1.262360   -0.172182
H       0.779282   -0.815033    0.360712
H      -1.335480   -1.422812    0.299493
H      -3.336438   -1.452140   -0.588754
H      -5.487342   -1.003216   -0.427564
