23

C      -0.588084    1.415061   -0.013848
C       0.184461    0.098770   -0.027781
C       1.292033    0.024894   -1.089150
O       2.236404   -0.937380   -0.632453
C       2.014033   -1.239438    0.755862
C       3.342345   -1.231772    1.502622
C       4.333192   -2.254922    0.962559
O       5.509237   -2.181349    1.757709
C       0.988012   -0.209714    1.245185
H       0.083112    2.261084    0.173287
H      -1.090655    1.592549   -0.970766
H      -1.355016    1.417502    0.767226
H      -0.516526   -0.727754   -0.203818
H       0.921499   -0.281303   -2.074418
H       1.779978    1.006610   -1.204295
H       1.576056   -2.250315    0.814586
H       3.790496   -0.233425    1.438678
H       3.160872   -1.440970    2.564215
H       3.886606   -3.262685    1.006911
H       4.543085   -2.034045   -0.092968
H       6.167071   -2.766103    1.370987
H       1.499062    0.696269    1.595890
H       0.373549   -0.587497    2.066583
