15

N       0.002709    1.392919    0.008388
C      -0.034251    0.044679    0.003341
C      -1.136454   -0.766828    0.002094
C      -0.765407   -2.172109   -0.003758
O      -1.497521   -3.140390   -0.005949
C       0.773548   -2.239221   -0.006994
C       1.193402   -0.790426   -0.001824
N       2.432319   -0.474545   -0.002210
O       2.658447    0.914901    0.003043
H       0.888152    1.867022    0.008527
H      -0.850340    1.923637    0.011247
H      -2.165589   -0.431153    0.005088
H       1.137221   -2.781109    0.871028
H       1.133373   -2.773445   -0.891316
H       3.619409    0.966831    0.001884
