27

C       0.101242    1.653215   -0.026503
C       0.045077    0.117773    0.015453
C       0.717490   -0.443647   -1.257575
C       1.035903   -1.944239   -1.307933
C      -0.146244   -2.923808   -1.276236
C      -1.004162   -2.962602    0.005482
C      -0.222237   -2.928758    1.338822
C      -0.126185   -1.555013    2.029035
C       0.652908   -0.421064    1.336717
H       1.135928    2.008314    0.054094
H      -0.309854    2.043096   -0.964355
H      -0.467043    2.095427    0.798683
H      -1.015484   -0.159467   -0.002526
H       0.096475   -0.177223   -2.123990
H       1.665857    0.095186   -1.396930
H       1.594148   -2.130725   -2.234217
H       1.733191   -2.194999   -0.499948
H      -0.802587   -2.729827   -2.135091
H       0.265452   -3.928951   -1.437813
H      -1.736469   -2.148062   -0.001264
H      -1.599578   -3.882243   -0.034502
H      -0.716889   -3.601552    2.049369
H       0.782877   -3.346693    1.195652
H      -1.148679   -1.198074    2.219503
H       0.322032   -1.710437    3.018914
H       1.695331   -0.725688    1.174994
H       0.703430    0.406468    2.054860
