18

C       0.575328    0.728097   -0.882268
C      -0.076249    0.175954    0.366079
O       0.337220    0.417973    1.479699
C      -1.270133   -0.740005    0.184289
C      -2.206806   -0.924512    1.399803
O      -2.088059   -2.368573    1.351457
C      -1.193394   -2.308117    0.240242
C      -1.915621   -2.318297   -1.123766
N      -1.868500   -0.828361   -1.161086
H       1.445300    1.323905   -0.604371
H       0.866224   -0.084227   -1.555922
H      -0.140833    1.336620   -1.443910
H      -1.792364   -0.521677    2.328095
H      -3.239489   -0.581856    1.258279
H      -0.287410   -2.900185    0.383025
H      -1.367348   -2.771170   -1.957537
H      -2.910807   -2.770012   -1.057078
H      -2.765375   -0.364243   -1.264360
