15

N       0.024162    1.395578   -0.147159
C      -0.052123    0.034052   -0.029020
C      -1.278963   -0.598568    0.014375
C      -1.538771   -1.985270    0.033706
C      -0.691705   -3.056112   -0.011095
C       0.752368   -3.051034   -0.076277
O       1.418311   -4.078330   -0.183290
C       1.519140   -1.768938    0.034128
N       1.205687   -0.523607    0.037539
H       0.919228    1.808858    0.055311
H      -0.795359    1.959921   -0.003000
H      -2.150809    0.050295    0.022796
H      -2.597776   -2.232170    0.078880
H      -1.121236   -4.053386   -0.003113
H       2.588525   -1.983456    0.113689
