13

O      -0.309806    0.067699    0.005091
C      -0.088793    1.255808    0.009209
N       1.158015    1.825881   -0.000179
C       2.357710    1.111908   -0.016231
C       2.656437   -0.228267   -0.030968
N       4.024944   -0.400747   -0.042810
C       4.542530    0.799255   -0.035816
N       3.570812    1.768200   -0.019540
H      -0.879868    2.029672    0.020887
H       1.200380    2.833077    0.002868
H       1.964044   -1.050720   -0.032982
H       5.592941    1.047623   -0.041697
H       3.719501    2.763329   -0.010740
