16

O      -0.087830    1.429616   -0.049363
C      -0.049865    0.053618   -0.023624
C      -0.400254   -0.835502   -1.200195
C      -1.166145   -0.953716    0.088775
O      -0.438437   -1.753925    1.026849
C       0.615569   -0.757914    1.091678
C       2.019499   -1.329819    0.888280
C       2.438484   -2.204431    1.981588
N       2.769259   -2.886312    2.853412
H       0.497427    1.743580   -0.747131
H      -0.929268   -0.302419   -1.985031
H       0.236627   -1.648930   -1.536467
H      -2.238690   -0.867146    0.205342
H       0.557839   -0.218371    2.044412
H       2.066496   -1.889197   -0.050997
H       2.730004   -0.497184    0.815302
