16

C      -0.018486    1.526583   -0.044917
C      -0.008405    0.034779    0.048465
N      -0.037151   -0.682674   -1.060400
O      -0.019609   -2.043864   -0.668473
C       0.019739   -2.064413    0.657952
C       0.029503   -0.813013    1.191407
C       0.073225   -0.946226    2.648925
C       0.088567   -2.259223    2.958527
C       0.055700   -3.129682    1.704184
H       0.876351    1.952826    0.420564
H      -0.051234    1.837455   -1.090680
H      -0.888016    1.944250    0.473307
H       0.090222   -0.129111    3.357839
H       0.119885   -2.681267    3.953939
H      -0.822832   -3.786125    1.677399
H       0.937318   -3.777758    1.625442
