18

C       0.022773    1.477861    0.063501
C       0.008464   -0.010313   -0.049181
C       0.055462   -0.846769   -1.150571
N       0.069087   -0.508354   -2.514662
C       0.008427   -2.161878   -0.618380
C       0.014426   -3.436789   -1.398197
O       1.049522   -3.455302   -2.390771
N      -0.047135   -2.147585    0.714667
N      -0.050929   -0.846009    1.033374
H       1.038769    1.890258    0.119079
H      -0.469422    1.930070   -0.803081
H      -0.515959    1.815698    0.955132
H       0.578105    0.345261   -2.705551
H       0.469392   -1.265384   -3.058152
H       0.094682   -4.286825   -0.708243
H      -0.913490   -3.555760   -1.968987
H       1.884373   -3.333172   -1.925546
H      -0.091074   -0.579670    2.002267
