21

O       0.002022    1.394973   -0.182371
C       0.010896   -0.018335    0.007686
C       0.684692   -0.454448    1.336681
C      -0.382042   -0.596877    2.428144
C      -1.319430    0.648076    2.409199
C      -2.168482   -0.121159    1.384079
C      -1.596215   -1.473659    1.909759
C      -1.462280   -1.987349    0.466580
C      -1.441288   -0.492663    0.028179
H       0.915245    1.698861   -0.182032
H       0.527235   -0.496991   -0.839862
H       1.214400   -1.403287    1.194763
H       1.439424    0.287082    1.627098
H       0.053732   -0.887973    3.386700
H      -1.868690    0.751039    3.350667
H      -0.887865    1.609369    2.125723
H      -3.236858    0.075590    1.280681
H      -2.087552   -2.077899    2.674190
H      -0.611801   -2.618480    0.185114
H      -2.383752   -2.485711    0.151609
H      -1.953899   -0.218189   -0.895348
