18

C       0.008787    1.381549   -0.264992
C      -0.077620    0.165176    0.637808
O       0.810272   -0.132337    1.405272
C      -1.340980   -0.670395    0.511623
C      -1.078973   -1.909813   -0.366768
C      -0.721971   -2.736214    0.806611
C      -1.529329   -1.692902    1.666608
C      -2.770457   -2.472478    1.206187
N      -1.978414   -3.037662    0.063096
H       0.999444    1.831655   -0.193209
H      -0.207882    1.111307   -1.304702
H      -0.747869    2.117217    0.032925
H      -2.200254   -0.043569    0.243197
H      -0.713186   -1.947808   -1.384435
H       0.067669   -3.446324    1.005991
H      -1.342021   -1.392172    2.693920
H      -3.039128   -3.294686    1.874008
H      -3.669939   -1.911652    0.924752
