17

N      -0.400776    1.350499    0.713813
C      -0.078898    0.073357    0.210609
C      -0.902162   -0.779945   -0.493339
N      -0.206054   -1.956460   -0.694338
C       1.043773   -1.857725   -0.157653
C       2.016954   -3.006453   -0.190037
C       1.807826   -3.910909   -1.318764
C       1.593238   -4.655352   -2.238203
C       1.155146   -0.610245    0.420554
H       0.393058    1.978496    0.685323
H      -1.165179    1.779915    0.207515
H      -1.906372   -0.651686   -0.862807
H      -0.515160   -2.737339   -1.247465
H       3.037583   -2.606947   -0.223444
H       1.957145   -3.591573    0.740023
H       1.434680   -5.315222   -3.054917
H       2.016077   -0.231610    0.951728
