21

C      -0.250862    1.368404    0.022812
C      -0.501737   -0.069598   -0.395452
O      -1.143960   -0.740152    0.683389
C      -1.414254   -2.075278    0.426111
C      -2.690035   -2.680574    0.943528
C      -3.814827   -1.676763    0.720882
O      -3.478583   -1.535156   -0.685876
C      -2.454768   -2.528322   -0.564380
C      -2.274735   -3.475772   -1.704984
H       0.240840    1.919657   -0.784374
H      -1.195153    1.867310    0.258424
H       0.388247    1.406774    0.909670
H      -1.141722   -0.112248   -1.287352
H       0.447994   -0.573154   -0.638874
H      -0.548877   -2.741012    0.486362
H      -2.726647   -3.548680    1.588698
H      -4.814955   -2.109143    0.831097
H      -3.746791   -0.726935    1.259147
H      -1.990576   -2.930730   -2.612542
H      -1.485153   -4.199669   -1.483388
H      -3.200285   -4.021406   -1.914481
