21

C      -0.077400    1.672619    0.024506
C       0.048144    0.157504   -0.000298
C       1.143594   -0.579322   -0.808156
C       2.440578    0.025216   -0.150316
C       2.064703    0.009499    1.394750
C       0.724652   -0.666236    1.169970
O      -0.152021   -1.440665    1.988740
C      -0.279858   -2.380335    0.864332
C       0.980373   -1.785610    0.156729
H       0.865704    2.184238    0.233038
H      -0.445042    2.045189   -0.938468
H      -0.796987    1.982789    0.790166
H      -0.933275   -0.272171   -0.208411
H       1.144152   -0.636720   -1.898243
H       3.320159   -0.591204   -0.354031
H       2.646939    1.032656   -0.518350
H       2.750889   -0.602871    1.984069
H       2.022689    1.010016    1.832884
H      -0.142822   -3.408219    1.209479
H      -1.250621   -2.289085    0.367914
H       1.856186   -2.424776    0.287145
