21

C      -0.162590    1.459733    0.085320
C       1.174651    0.738822    0.177982
C      -0.109028   -0.023233   -0.041771
O      -0.626405   -0.767755    1.040754
C      -0.343646   -2.134552    0.739587
C      -0.588352   -2.274904   -0.764328
C      -2.076509   -2.224458   -1.215978
C      -1.859517   -0.802180   -1.803819
C      -0.384290   -0.813674   -1.305398
H      -0.576589    1.859897    1.003995
H      -0.377180    2.045310   -0.802526
H       1.874963    0.840162   -0.644860
H       1.626919    0.666479    1.160904
H       0.702796   -2.373029    0.987273
H      -1.001215   -2.753120    1.357372
H       0.012049   -3.065737   -1.216961
H      -2.354127   -2.986112   -1.948215
H      -2.789595   -2.268610   -0.388208
H      -1.952311   -0.752088   -2.891285
H      -2.478251   -0.014237   -1.367360
H       0.375752   -0.655048   -2.071808
