14

O       0.378064    1.103140    0.602075
C      -0.014662   -0.112435    0.030014
C      -1.508648   -0.219485   -0.295998
C      -1.492459   -1.252234   -1.429287
O      -0.238753   -1.042141   -2.126077
C       0.606239   -0.336609   -1.337324
N       1.736723    0.126728   -1.653894
H       1.219038    1.328468    0.176222
H       0.277746   -0.961500    0.673619
H      -2.126395   -0.527890    0.548823
H      -1.860051    0.752432   -0.655411
H      -1.510928   -2.281522   -1.052480
H      -2.296490   -1.130822   -2.157345
H       1.987719   -0.083345   -2.619625
