22

C       0.115519    1.310052   -0.209581
O       0.024005   -0.058508    0.097735
C      -1.282779   -0.570896   -0.057749
C      -1.261788   -2.051571    0.311115
C      -2.592777   -2.758820    0.106097
C      -3.734547   -2.289287    0.990543
C      -2.932530   -3.220074   -1.293621
C      -2.545996   -4.228808   -0.237193
H       1.155460    1.612090   -0.061417
H      -0.168218    1.516297   -1.254461
H      -0.527768    1.921866    0.443678
H      -1.985970   -0.012774    0.583145
H      -1.625959   -0.442161   -1.099026
H      -0.488083   -2.534797   -0.296340
H      -0.942176   -2.146914    1.356879
H      -3.996957   -1.242504    0.801105
H      -4.635106   -2.887276    0.819035
H      -3.473402   -2.378913    2.051922
H      -3.969703   -3.183099   -1.610193
H      -2.221483   -3.019023   -2.088445
H      -1.575895   -4.707763   -0.319660
H      -3.323664   -4.871031    0.163074
