18

C      -0.052392    1.475424    0.170245
C       0.064480   -0.023838   -0.014322
O       1.132376   -0.586472   -0.100330
C      -1.254577   -0.797627   -0.039564
C      -2.225256   -0.309460   -1.117949
C      -1.097377   -2.338572    0.111528
N      -1.736193   -2.209921    1.429794
C      -1.898813   -0.856371    1.391063
O      -2.353431   -0.043234    2.152030
H       0.927124    1.888417    0.413599
H      -0.414572    1.942813   -0.752387
H      -0.778705    1.702138    0.957975
H      -1.777753   -0.378794   -2.114820
H      -3.136613   -0.914836   -1.110815
H      -2.516377    0.728745   -0.940338
H      -1.675424   -2.931221   -0.603575
H      -0.059747   -2.674058    0.143583
H      -1.934369   -2.880952    2.156909
