18

C      -0.090021    1.484669   -0.000008
C       0.083106   -0.015691    0.064878
C       1.384190   -0.712722   -0.212003
C       2.657441   -0.053509    0.337842
C       2.010048   -0.032390    1.773295
C       0.775162   -0.744700    1.191050
N       0.423751   -2.128740    1.438802
C       0.741099   -2.741922    0.366107
O       1.329290   -2.056211   -0.673477
H       0.788075    2.020474    0.369625
H      -0.262601    1.805794   -1.032484
H      -0.948601    1.799008    0.602090
H      -0.766683   -0.577707   -0.312475
H       3.508550   -0.733857    0.280880
H       2.943804    0.904619   -0.105606
H       2.544161   -0.663970    2.484350
H       1.842200    0.947307    2.229184
H       0.582599   -3.795828    0.167814
