13

N       0.035113    1.393938    0.150844
C      -0.030110    0.023379    0.054194
C      -1.203223   -0.683436    0.033333
C      -1.200416   -2.123660   -0.008808
O      -2.162668   -2.873144   -0.029443
N       0.103912   -2.663592   -0.034146
N       1.263519   -2.010695   -0.020722
C       1.207728   -0.714255    0.023998
H       0.881798    1.840496   -0.163663
H      -0.803561    1.910825   -0.061896
H      -2.171215   -0.196208    0.050131
H       0.169898   -3.671997   -0.067990
H       2.161440   -0.196299    0.042411
