19

O      -0.593240    1.013953    0.931990
C      -0.016198    1.111477   -0.120325
C       1.363773    1.700374   -0.305733
C       1.345523    2.873035   -1.289936
C       0.867720    4.262696   -0.809128
C       2.237726    4.591449   -0.112951
C       2.364713    5.943360   -0.841781
C       1.736296    5.001331   -1.885626
C       2.592091    3.776584   -1.408392
H      -0.495595    0.765872   -1.067590
H       1.752051    1.994197    0.673244
H       2.010054    0.906889   -0.709843
H       0.923604    2.560202   -2.254535
H      -0.119304    4.570438   -0.459686
H       2.521449    4.339702    0.909208
H       1.736489    6.761189   -0.474667
H       3.379509    6.299911   -1.045836
H       1.436500    5.204702   -2.915058
H       3.595589    3.518905   -1.753056
