19

C      -0.205901    1.557931   -0.024963
C      -0.014685    0.042275    0.018768
O      -1.272749   -0.627812   -0.044598
C       0.806370   -0.483971   -1.162455
O       1.949005    0.314863   -1.470333
C       2.150336   -0.884674   -0.713567
C       2.280389   -0.624432    0.779871
C       0.813351   -0.448888    1.248489
O       0.626231    0.414140    2.354678
H       0.754870    2.072561   -0.078599
H      -0.797445    1.825271   -0.905055
H      -0.725999    1.898444    0.874572
H      -1.818241   -0.281718    0.669674
H       0.278514   -0.922148   -2.005179
H       2.739125   -1.652072   -1.209063
H       2.773800   -1.450588    1.301358
H       2.859549    0.287255    0.958718
H       0.409478   -1.448686    1.468960
H       1.050132    0.019757    3.122869
