16

N       0.089925    1.402322    0.136295
C      -0.003793    0.008461    0.024188
C      -1.157531   -0.704426    0.001605
C      -1.184043   -2.154660    0.001654
N      -2.294164   -2.812002   -0.005622
C       0.156434   -2.767948   -0.016997
O       0.156173   -4.132255   -0.053298
C       1.276337   -2.017291   -0.009333
N       1.216803   -0.626567   -0.022381
H       0.675722    1.818235   -0.579645
H      -0.820202    1.842910    0.128513
H      -2.111606   -0.192379   -0.032197
H      -2.096618   -3.813326   -0.019290
H       1.061611   -4.458860   -0.063334
H       2.274572   -2.440306   -0.025868
H       2.009064   -0.115646    0.334110
