16

C      -0.137569    1.402424    0.012994
N       0.203188   -0.003338    0.111426
C       0.693121   -0.646496   -1.011404
C       1.288348   -0.116776   -2.140863
N       1.638618   -1.188395   -2.914721
N       1.310922   -2.366665   -2.390280
C       0.727732   -2.059590   -1.220315
C       0.209162   -3.031585   -0.334346
C      -0.263776   -3.797815    0.466660
H       0.767882    1.995176   -0.162163
H      -0.850018    1.626588   -0.797835
H      -0.569492    1.734857    0.959530
H      -0.466861   -0.564647    0.617538
H       1.490188    0.896340   -2.444368
H       2.095707   -1.168606   -3.810006
H      -0.663788   -4.495191    1.160042
