17

C      -0.010451    1.537987   -0.029803
C       0.037004    0.024394   -0.043561
C      -1.175467   -0.661594    0.561727
C       0.653322   -0.768620   -1.193108
C       1.926406   -0.096925   -1.692589
O       2.454957    0.003403   -0.341572
C       1.327704   -0.718208    0.163706
H       0.956763    1.968921   -0.295866
H      -0.767937    1.919100   -0.724175
H      -0.266876    1.900605    0.972156
H      -2.083986   -0.425117   -0.004054
H      -1.063562   -1.751228    0.566393
H      -1.332291   -0.336084    1.596117
H       0.130135   -1.575092   -1.690560
H       2.557224   -0.758120   -2.297541
H       1.840220    0.879895   -2.183006
H       1.510487   -1.465175    0.929557
