21

O      -0.128584    1.459184    0.104650
C       0.004636    0.040653    0.005417
C      -1.411372   -0.528978   -0.039297
O      -2.106229   -0.103887    1.133970
C      -2.203128   -0.127620   -1.314085
C      -3.271035   -1.231930   -1.475722
C      -2.618359   -2.483429   -0.904646
C      -1.201766   -2.783258   -1.323829
C      -1.464135   -2.046743   -0.030235
H       0.721563    1.832546    0.352105
H       0.566318   -0.244913   -0.895153
H       0.525363   -0.365431    0.884236
H      -1.885520    0.831346    1.233983
H      -2.632341    0.870193   -1.206690
H      -1.537801   -0.097312   -2.183371
H      -4.154807   -0.987103   -0.877274
H      -3.597017   -1.346735   -2.515143
H      -3.250975   -3.313135   -0.610006
H      -0.865987   -3.810573   -1.233580
H      -0.768274   -2.256617   -2.168019
H      -1.243117   -2.533460    0.912608
