17

C       0.021963    1.455221   -0.039158
C      -0.013769    0.002174   -0.004026
C      -0.039747   -1.203175    0.019947
C      -0.067817   -2.619345    0.067926
O       0.820889   -3.383914   -0.782001
C      -0.242486   -4.339788   -1.072580
C      -1.177943   -3.684354   -0.072714
C      -0.428994   -3.501379    1.230627
O       0.474196   -4.431035    1.728072
H       0.818661    1.806147   -0.704283
H      -0.922879    1.869296   -0.408527
H       0.208545    1.877263    0.954486
H      -0.562392   -4.241062   -2.114284
H       0.064250   -5.370924   -0.866608
H      -2.247102   -3.557815   -0.176940
H      -1.003815   -3.019840    2.015637
H       1.231749   -4.414681    1.125959
