15

C       0.015183    1.488546    0.090927
C       1.314461    0.722804   -0.002067
N       2.065382    0.358749    1.212763
C       1.167994   -0.403756    1.953948
C       0.008510   -0.730059    1.298763
N      -0.718793   -1.571792    2.067427
N      -0.075276   -1.780054    3.183783
N       1.103659   -1.055137    3.124100
C      -0.024659   -0.027122   -0.008415
H      -0.269382    1.941025    1.034905
H      -0.266008    2.055069   -0.790355
H       1.925614    0.820233   -0.891439
H       2.515871    1.134953    1.682318
H       1.740711   -1.096985    3.901577
H      -0.405821   -0.501535   -0.904084
