18

N      -0.145334   -1.237277    0.053305
C      -0.102288   -0.081799    0.054673
C      -0.046778    1.373297    0.057704
C      -0.046540    2.039825    1.470219
O       1.171685    2.744606    1.180303
C       1.386703    1.988257   -0.022420
C      -1.033291    2.000517   -0.911217
C      -1.355769    1.378815   -2.245633
C      -2.400567    1.416482   -1.157453
H      -0.886989    2.714040    1.664481
H       0.066476    1.335531    2.302744
H       2.198383    1.258824    0.082488
H       1.569336    2.625660   -0.893638
H      -0.970304    3.085085   -0.888282
H      -1.466234    2.038872   -3.098291
H      -0.917450    0.414207   -2.477507
H      -2.647351    0.476573   -0.675761
H      -3.233737    2.102586   -1.257402
