17

C      -0.002136    1.515689   -0.045454
C      -0.070264    0.020549    0.119855
C      -1.339304   -0.734796   -0.294219
C      -1.338397   -1.966547    0.583111
C      -0.314948   -1.978611    1.438433
C       0.556076   -0.789132    1.217527
O       1.120708   -0.712840   -0.123903
C       1.410049   -0.216696    2.287210
O       1.336228   -0.548943    3.444811
H       0.960762    1.908597    0.286406
H      -0.128649    1.780374   -1.101166
H      -0.799450    2.006703    0.520847
H      -2.234404   -0.120012   -0.135370
H      -1.308155   -0.981631   -1.362607
H      -2.086520   -2.744994    0.487925
H      -0.094434   -2.729065    2.185003
H       2.140299    0.541584    1.933275
