19

C       0.049325    1.560683   -0.053817
C       0.055232    0.044782    0.033226
O       0.765555   -0.483951   -1.085173
C       1.202150   -1.798833   -0.759108
C       1.525516   -1.759637    0.723707
C       2.279292   -0.551680    1.195357
C       0.759066   -0.557040    1.260815
C       0.073989   -0.555128    2.514796
C      -0.527570   -0.528491    3.556903
H       1.068502    1.956018   -0.023313
H      -0.420275    1.885062   -0.986393
H      -0.514683    1.980289    0.784120
H      -0.982295   -0.329036    0.033603
H       0.413945   -2.543463   -0.954989
H       2.060608   -2.025574   -1.399964
H       1.570006   -2.683618    1.286713
H       2.801086   -0.623076    2.141780
H       2.746456    0.085947    0.451933
H      -1.050840   -0.510674    4.480418
