18

O       0.145779    1.393787   -0.175042
C       0.022694   -0.005503   -0.013220
C       0.662582   -0.583491    1.295230
C      -0.511378   -1.364744    1.908202
C      -1.206489   -1.943275    0.665744
C      -1.436907   -0.541044    0.065100
C      -2.136027    0.131126    1.252564
O      -1.464858   -0.409297    2.407389
H      -0.054583    1.814699    0.667137
H       0.506914   -0.428934   -0.898251
H       1.523941   -1.224746    1.084713
H       0.995461    0.216731    1.962764
H      -0.261735   -2.048442    2.720030
H      -0.555931   -2.578667    0.058590
H      -2.128426   -2.480615    0.901207
H      -1.986668   -0.475704   -0.874132
H      -2.046966    1.224320    1.244182
H      -3.205142   -0.115407    1.295694
