17

C       0.035023    1.522148    0.021046
O       1.481882    1.535356    0.000058
C       1.527572    0.091293   -0.191816
C       2.120012   -0.713235    0.935396
C       1.175128   -1.285628    1.687688
C      -0.209376   -0.894334    1.241706
O      -0.930528   -1.874569    0.439652
C      -0.906412   -1.000797   -0.713585
C       0.004611   -0.005647    0.004110
H      -0.374416    2.012953    0.912349
H      -0.386284    1.997809   -0.875063
H       1.948280   -0.153613   -1.175517
H       3.189203   -0.819419    1.082565
H       1.357008   -1.936196    2.536089
H      -0.844113   -0.519926    2.055076
H      -0.493981   -1.493432   -1.602496
H      -1.907836   -0.615882   -0.949709
