17

C       0.115400    1.246749    0.159417
N       0.069641   -0.185815   -0.060700
C      -1.059581   -0.729104   -0.045633
O      -1.135571   -2.084012   -0.260498
C      -2.376614   -2.663236   -0.178279
O      -3.393102   -2.084033    0.104426
N      -2.276484   -3.989796   -0.538829
C      -1.435424   -4.963518    0.132565
C      -2.932521   -5.043828    0.202461
H       0.586378    1.729277   -0.703859
H      -0.870449    1.708107    0.324179
H       0.749195    1.458106    1.027513
H      -2.030811   -0.257272    0.119120
H      -0.882045   -5.632397   -0.519287
H      -0.902317   -4.637790    1.020986
H      -3.415903   -4.766199    1.134878
H      -3.464815   -5.776115   -0.396589
