15

C      -0.081040    1.506059    0.371772
C       0.004271    0.020083    0.088766
O       0.707796   -0.593586    1.197075
C       0.860670   -1.919621    1.119945
O       0.472842   -2.624120    0.221952
C       1.570511   -2.427375    2.277627
C       2.146542   -2.927277    3.214323
C       2.868949   -3.514223    4.318826
O       2.351281   -3.872544    5.349174
H       0.916102    1.946020    0.458573
H      -0.608628    2.005002   -0.446250
H      -0.625333    1.696217    1.300644
H      -0.982813   -0.444006    0.004502
H       0.552217   -0.196589   -0.833149
H       3.958468   -3.611114    4.141836
