12

O       0.046416    1.326806    0.007374
C      -0.051785   -0.003884    0.001156
C      -1.241128   -0.665210    0.004376
C      -1.175416   -2.079852   -0.003111
C       0.008527   -2.757255   -0.013083
C       1.264684   -2.066288   -0.016704
O       2.388279   -2.477351   -0.024789
O       1.123384   -0.620143   -0.008490
H       0.985964    1.556189    0.003340
H      -2.169214   -0.114397    0.012307
H      -2.104869   -2.641078   -0.000747
H       0.060687   -3.837390   -0.018728
