20

C       0.071997    1.500184    0.097159
N      -0.038084    0.055211    0.132491
C      -1.183982   -0.607880   -0.201289
O      -2.206491   -0.035480   -0.534448
C      -1.057724   -2.138964   -0.162317
C      -2.415780   -2.845676    0.077163
C      -2.456127   -4.047982   -0.900735
C      -1.374074   -3.718865   -1.897829
C      -0.614421   -2.700432   -1.502932
H       0.307126    1.908188    1.086707
H       0.844748    1.826535   -0.608178
H      -0.893858    1.888857   -0.227347
H       0.761547   -0.484602    0.418499
H      -0.319815   -2.402421    0.610723
H      -2.549913   -3.143032    1.119844
H      -3.201500   -2.129243   -0.173258
H      -2.237400   -4.999781   -0.396248
H      -3.439664   -4.170835   -1.368258
H      -1.227034   -4.283807   -2.812116
H       0.239472   -2.302612   -2.040427
