15

N       0.208642    1.336174    0.559451
C       0.078622    0.097714   -0.021455
N      -0.996028   -0.566554    0.063528
C      -1.246788   -1.874828   -0.497727
C      -0.108009   -2.901204   -0.509970
O      -0.208469   -4.011994   -0.080091
O       1.087641   -2.510588   -1.057954
C       1.184362   -1.230201   -1.632859
O       1.251247   -0.205229   -0.673021
H       1.153506    1.644841    0.724321
H      -0.448167    1.516646    1.301645
H      -2.036199   -2.351188    0.087869
H      -1.641728   -1.798460   -1.523264
H       2.138738   -1.208587   -2.157517
H       0.361068   -1.044234   -2.331068
