19

C      -0.027207    1.514699    0.068863
C       1.514604    1.485202   -0.003117
O       2.043886    1.290739    1.308753
C       1.877057   -0.080311    1.568324
C       0.448899   -0.711832    1.340135
C       1.210767   -1.956542    0.797676
C       2.241328   -0.904486    0.307851
C       1.448771    0.032170   -0.621299
C       0.013127   -0.029922    0.026235
H      -0.458419    2.009142    0.943537
H      -0.471984    1.925185   -0.842801
H       2.057280    2.299319   -0.486966
H       2.357797   -0.343565    2.509832
H      -0.288304   -0.786335    2.140202
H       1.613767   -2.591117    1.591307
H       0.701308   -2.572846    0.052568
H       3.271172   -1.151283    0.052736
H       1.548988   -0.067453   -1.699873
H      -0.793350   -0.561733   -0.483053
