14

C      -0.208339    1.562015    0.016412
C      -0.049848    0.031397    0.015446
C       0.869693   -0.443207    1.145916
O      -1.320381   -0.613312    0.060451
C       0.532018   -0.378879   -1.339266
O       1.679990   -0.210588   -1.656059
H       0.760807    2.049889   -0.117417
H      -0.878470    1.880815   -0.787209
H      -0.633893    1.893772    0.970531
H       0.512277   -0.072118    2.112802
H       0.893446   -1.535720    1.180663
H       1.886150   -0.076355    0.984125
H      -1.757596   -0.355563    0.878241
H      -0.216861   -0.835317   -2.023024
