16

C       0.008970    1.540092    0.002982
O       1.257553    2.205487   -0.075286
C       2.215521    1.624539   -0.935136
C       2.396473    0.139413   -0.644355
O       2.428788   -0.099928    0.794735
C       1.184693   -0.790981    0.705807
C       0.091864    0.024712    0.054471
C       1.113336   -0.693540   -0.795676
H      -0.475212    1.938704    0.900908
H      -0.621571    1.811410   -0.862844
H       1.948515    1.747561   -2.000123
H       3.142701    2.175507   -0.749902
H       3.283938   -0.273717   -1.132930
H       1.014128   -1.610798    1.393990
H      -0.879638   -0.464353    0.085365
H       0.900749   -1.424010   -1.564260
