19

C       0.457968    1.398242   -0.049846
C       0.162672   -0.089984   -0.011848
O       0.728835   -0.686751   -1.179734
C       0.479066   -2.044627   -1.313727
C       1.106038   -2.536500   -2.623647
C       2.515745   -2.935635   -2.180980
C       2.348618   -3.264731   -0.701257
O       3.100633   -3.838615    0.027934
O       1.134794   -2.795806   -0.274872
H       1.537010    1.575773   -0.058426
H       0.026775    1.856831   -0.944211
H       0.034256    1.888396    0.831519
H       0.588780   -0.554653    0.885571
H      -0.923118   -0.275352    0.000722
H      -0.591118   -2.262755   -1.204311
H       0.551542   -3.403535   -2.992201
H       1.075060   -1.752487   -3.380174
H       2.942603   -3.789690   -2.707800
H       3.222997   -2.104445   -2.263207
