17

N       0.012188    1.408782    0.136039
C       0.039303    0.012988    0.029599
C      -1.139884   -0.738686    0.111637
N      -1.189816   -2.067737    0.076193
C      -0.033404   -2.721095   -0.059764
C       1.195546   -2.074359   -0.147293
C       1.252626   -0.685652   -0.091581
C       2.567855    0.061929   -0.138584
O       3.707876   -0.759951    0.016399
H       0.663345    1.898403   -0.461525
H      -0.914223    1.802728    0.042286
H      -2.092816   -0.219378    0.216641
H      -0.091073   -3.805547   -0.100025
H       2.113554   -2.639983   -0.257900
H       2.692265    0.548044   -1.116563
H       2.546424    0.870766    0.609979
H       3.678200   -1.136479    0.902428
