11

N      -0.179509   -1.169725   -0.219616
C      -0.098052   -0.021914   -0.108483
C       0.015953    1.416251    0.043865
C      -0.092111    2.012129    1.475950
O       1.149825    2.717862    1.313522
C       1.440420    2.038488    0.080293
H      -0.642572    1.915019   -0.669823
H      -0.936383    2.685960    1.650561
H      -0.045887    1.261784    2.273815
H       2.244481    1.301177    0.188005
H       1.680182    2.730965   -0.732311
