21

C       0.049535    1.277184   -0.264965
C      -0.294605   -0.007319    0.454688
C       0.410608   -1.314456    0.146884
C       0.583427   -0.649630    1.494310
C       1.912605   -0.056687    1.904340
O      -0.184774   -1.172543    2.560073
C       0.397674   -2.216365    3.322402
C       0.623571   -3.473612    2.602551
C       0.814108   -4.522736    2.047607
H       1.108982    1.328868   -0.533169
H      -0.521989    1.356909   -1.196264
H      -0.184438    2.157294    0.344509
H      -1.350101   -0.118786    0.688289
H      -0.181164   -2.219789    0.108121
H       1.252221   -1.289676   -0.539275
H       2.387642    0.454770    1.064610
H       1.778408    0.668589    2.714338
H       2.612545   -0.827447    2.244264
H       1.342481   -1.893670    3.783085
H      -0.308486   -2.393035    4.140999
H       0.982736   -5.446319    1.551167
