10

O       0.089149   -0.031328    0.081168
C       0.009176    1.133400   -0.085426
O       1.100616    1.963700    0.231971
C       0.911609    3.276065    0.191177
N      -0.181635    3.913439    0.400819
O       0.200443    5.273545    0.215676
C       1.524808    5.338690   -0.066617
O       2.179695    6.300775   -0.262125
O       1.991234    4.019302   -0.088476
H      -0.833391    1.709944   -0.489558
