19

C      -0.000819    1.458062    0.000228
C       1.495374    1.843392    0.117134
C       2.187782    0.710735   -0.640780
O       3.517463    0.476202   -0.251278
C       3.936494   -0.777473   -0.792060
C       3.102824   -1.940028   -0.235001
N       1.666734   -1.686261   -0.124421
C       1.302424   -0.482519   -0.307257
N       0.025816    0.005143   -0.174477
H      -0.568455    1.743918    0.891691
H      -0.471681    1.951762   -0.860594
H       1.711089    2.837469   -0.278242
H       1.818812    1.805303    1.162073
H       2.139728    0.899282   -1.729315
H       3.859295   -0.742325   -1.891507
H       4.991597   -0.892504   -0.529547
H       3.265595   -2.824170   -0.865227
H       3.468861   -2.208791    0.765901
H      -0.685658   -0.586104    0.224345
