17

C      -0.094750    1.550438   -0.066063
C       0.020276    0.030767   -0.036953
N       0.963694   -0.395594   -1.105577
C       1.625155   -1.354579   -0.594082
N       3.026749   -1.081620   -0.228237
C       2.304467   -1.015034    1.152519
C       1.186472   -1.920484    0.799632
C       0.733129   -0.573807    1.206069
O       0.216918   -0.386297    2.473355
H       0.896836    2.009911   -0.027589
H      -0.587195    1.879082   -0.984480
H      -0.691030    1.902643    0.783963
H      -0.983815   -0.415747   -0.103929
H       3.547974   -1.962931   -0.150770
H       2.904968   -0.960968    2.055453
H       0.889412   -2.913141    1.113497
H       0.302460    0.546416    2.701164
