16

C      -0.414578    1.584789   -0.155836
C      -0.260005    0.140153   -0.127664
C      -0.111203   -1.056852   -0.104363
C      -0.028693   -2.475192   -0.067245
C      -1.310948   -3.269314    0.091744
C      -1.535090   -3.680911    1.542824
O      -2.570886   -3.522619    2.131832
N       1.143447   -3.005547   -0.147962
O       1.075973   -4.400209   -0.081128
H       0.264651    2.067265    0.555415
H      -0.193094    1.985394   -1.151346
H      -1.437241    1.878132    0.103639
H      -2.173827   -2.695973   -0.247523
H      -1.221817   -4.191398   -0.495232
H      -0.654643   -4.156355    2.023192
H       1.999106   -4.654538   -0.187517
