18

C      -0.162603    1.540353    0.044286
C      -0.025208    0.012423   -0.026965
C       0.674559   -0.400110   -1.308764
O       0.309876   -1.281135   -2.043568
C       0.780273   -0.538932    1.159303
C       0.088131   -0.514292    2.543662
O       0.140009   -1.948406    2.648162
C       0.779005   -2.072791    1.360787
H       0.817047    2.027433   -0.021249
H      -0.784939    1.923473   -0.769822
H      -0.622483    1.844321    0.989230
H      -1.012751   -0.462771   -0.033516
H       1.608176    0.175053   -1.522544
H       1.781382   -0.097135    1.168463
H       0.645073   -0.020757    3.349625
H      -0.944123   -0.138288    2.544317
H       0.166356   -2.635096    0.645373
H       1.764551   -2.547568    1.436031
