20

C       0.014782    1.524311   -0.115407
C       0.056703    0.002249   -0.078007
O       1.115996   -0.596128   -0.176140
N      -1.140252   -0.654122    0.079292
C      -1.161782   -2.114511    0.065982
C      -1.853477   -2.656795    1.320082
C      -3.147182   -1.927848    1.565653
C      -3.413070   -0.749827    1.007053
C      -2.440738   -0.002980    0.131360
H       1.029843    1.870774   -0.305833
H      -0.648217    1.900359   -0.900806
H      -0.327605    1.941528    0.837397
H      -1.705579   -2.459602   -0.825336
H      -0.128407   -2.448476   -0.011640
H      -2.040216   -3.730829    1.198302
H      -1.189614   -2.559956    2.190143
H      -3.881398   -2.398027    2.214467
H      -4.367017   -0.255841    1.169780
H      -2.325870    1.012014    0.521399
H      -2.870526    0.107800   -0.880795
