18

C       0.022405    1.461616    0.059471
C      -0.007185    0.007599    0.006195
C      -0.039888   -1.196280   -0.022939
C      -0.049424   -2.629437   -0.097247
C       0.955339   -3.328179   -1.029666
C       0.237330   -4.586769   -1.463487
C      -1.012290   -4.636252   -0.993276
C      -1.302039   -3.476206   -0.101482
N      -0.474941   -3.360236    1.115702
H       0.942206    1.857280   -0.385601
H      -0.822892    1.900572   -0.482504
H      -0.024837    1.820016    1.093791
H       1.191176   -2.683628   -1.884912
H       1.907742   -3.532188   -0.523600
H       0.713701   -5.348263   -2.070355
H      -1.733388   -5.421836   -1.186140
H      -2.297719   -3.053480   -0.022136
H       0.084615   -4.205586    1.223517
