17

O       0.077911    1.416448    0.034534
C       0.073202    0.039591   -0.011410
C       0.800948   -0.966447    0.906136
C      -0.023564   -1.826568   -0.111052
C      -0.828806   -3.010697    0.453049
C      -1.703012   -1.893001    1.158324
O      -2.453562   -1.901183    2.081684
C      -1.198610   -0.840522    0.105477
C       0.491881   -0.908295   -1.249256
H       0.991044    1.722834    0.072370
H       1.888783   -1.038087    0.818885
H       0.478072   -0.989837    1.950592
H      -1.437861   -3.529382   -0.295119
H      -0.327692   -3.744003    1.088582
H      -1.917990   -0.762893   -0.717846
H      -0.129920   -0.834661   -2.143933
H       1.557914   -0.942253   -1.492834
