19

C      -0.004175    1.350033    0.146170
O       0.024730   -0.048719   -0.049266
C       0.709493   -0.491564   -1.168978
C       0.388332   -0.067057   -2.659582
C       1.781055   -0.745632   -2.893993
C       2.195967   -0.172061   -1.508574
C       1.416775   -2.210324   -2.558486
O       1.919007   -2.703119   -1.305496
C       0.652724   -2.027450   -1.329048
H       1.002679    1.766876    0.285410
H      -0.487198    1.872108   -0.691533
H      -0.585772    1.528662    1.053204
H      -0.487100   -0.515982   -3.138257
H       0.404183    1.012925   -2.826475
H       2.368156   -0.549290   -3.788731
H       2.385070    0.900716   -1.571312
H       2.974026   -0.684423   -0.946689
H       1.213429   -2.952184   -3.323077
H      -0.216961   -2.590372   -1.009244
