23

C      -0.020978    1.540554    0.010469
C      -0.041213   -0.002341    0.002405
C       0.674667   -0.533307   -1.270777
C       0.814786   -2.060067   -1.283891
C       1.533689   -2.569389   -0.026355
C       0.838950   -2.073628    1.250041
C       0.698769   -0.546830    1.255947
C      -1.437434   -0.455235    0.013293
C      -2.586827   -0.810893    0.022409
H       1.012232    1.903574    0.002559
H      -0.534569    1.942333   -0.867824
H      -0.517687    1.932859    0.902644
H       0.135733   -0.188703   -2.159886
H       1.671825   -0.073414   -1.303999
H      -0.183290   -2.511379   -1.342567
H       1.355039   -2.371852   -2.184889
H       1.580529   -3.664115   -0.032660
H       2.573695   -2.212869   -0.034365
H      -0.157875   -2.525635    1.322901
H       1.396251   -2.394991    2.137184
H       1.696428   -0.087220    1.275065
H       0.176928   -0.211816    2.158811
H      -3.600911   -1.125744    0.030535
