16

O      -0.716558    0.959802    0.583111
C       0.253616    0.890466   -0.128301
C       1.409637    1.854468   -0.067766
C       1.679696    2.552328    1.264829
O       2.659961    3.548402    0.937868
C       2.564834    3.780545   -0.448407
C       2.855809    2.612997   -1.383786
N       2.679697    1.340601   -0.679367
C       1.431612    3.042696   -1.083725
H       0.369080    0.105557   -0.906194
H       0.765403    3.007105    1.667687
H       2.106463    1.881911    2.018078
H       2.820081    4.790302   -0.747191
H       3.435301    2.684917   -2.297685
H       3.405421    1.164590    0.016134
H       0.621881    3.419552   -1.691638
