17

N      -0.066024   -1.148151   -0.062074
C      -0.042083    0.009056   -0.022009
C      -0.001859    1.424143    0.039107
C      -1.010499    2.355025    0.699387
C      -0.298856    3.297580    1.668700
C       1.215649    3.067409    1.390621
C       1.233609    2.371986    0.028511
N       0.560662    3.192742   -1.032526
C      -0.698531    2.497531   -0.778743
H      -1.982929    1.943648    0.945111
H      -0.591176    4.338313    1.492545
H      -0.559836    3.064857    2.703959
H       1.792909    3.997693    1.381354
H       1.659680    2.412245    2.148255
H       2.192508    1.958661   -0.285322
H       0.534726    4.190049   -0.822074
H      -1.446606    2.374590   -1.553889
