20

C      -0.192265    1.620472   -0.097096
C      -0.057132    0.106277   -0.041134
C       1.189148   -0.575725   -0.648085
C       2.089733   -0.247752    0.595238
C       2.552325   -1.716653    0.728684
C       2.989783   -2.248971    2.084946
C       1.067808   -1.808411    0.310908
C       0.653988   -0.555421    1.161340
H       0.742400    2.121493    0.175895
H      -0.467367    1.954842   -1.103838
H      -0.970956    1.972157    0.589202
H      -1.003906   -0.377989   -0.315353
H       1.524794   -0.607932   -1.687161
H       2.669400    0.663033    0.755129
H       3.252903   -2.032002   -0.056068
H       2.303492   -1.942806    2.881445
H       3.031198   -3.344095    2.084036
H       3.988915   -1.883486    2.348019
H       0.450075   -2.692383    0.136629
H       0.355552   -0.552805    2.211120
