23

C      -0.162662    1.532055    0.107582
C       0.050591    0.013223    0.041695
C       0.736031   -0.443383   -1.263879
C       2.227567   -0.069635   -1.287822
C       2.915688   -0.534025   -0.003497
C       4.354825   -0.053728    0.141988
O       4.924407   -0.488122    1.358974
O       2.232014   -0.033013    1.147856
C       0.888046   -0.484654    1.228999
H       0.790122    2.065835    0.160651
H      -0.708504    1.893492   -0.769947
H      -0.740857    1.805041    0.996804
H      -0.930257   -0.476035    0.104510
H       0.643695   -1.534401   -1.347674
H       0.221703   -0.018720   -2.133043
H       2.719694   -0.525669   -2.154620
H       2.349349    1.015688   -1.385109
H       2.908552   -1.637763    0.040283
H       4.966450   -0.462324   -0.669436
H       4.371607    1.045723    0.057067
H       4.264862   -0.286746    2.034147
H       0.496465   -0.104912    2.178131
H       0.868160   -1.586883    1.268559
