16

O       0.561182   -0.046130   -0.079784
C       0.680472    1.083696   -0.440621
O       0.735692    2.120113    0.426519
C       0.926838    3.430640   -0.110216
C       2.373735    3.871353    0.015184
C       2.621847    5.297598    0.400326
N       2.888806    4.225456    1.356259
C       3.290137    3.171765   -0.851305
C       4.008943    2.573557   -1.606367
H       0.743208    1.406560   -1.496828
H       0.608995    3.461708   -1.159658
H       0.278986    4.095225    0.468790
H       3.503605    5.797186    0.012643
H       1.753425    5.937873    0.538609
H       2.139410    4.144670    2.040304
H       4.663227    2.046149   -2.256169
