21

C      -0.141538    1.347866   -0.201561
O      -0.003209   -0.046557   -0.071565
C       0.664756   -0.637099   -1.162884
C       0.758827   -2.137060   -0.914822
C       1.473523   -2.876094   -2.049905
C       1.570555   -4.373850   -1.785071
O       2.316275   -5.023351   -2.823543
C       1.645279   -5.786067   -3.704832
O       2.174428   -6.333562   -4.624430
H       0.835884    1.852215   -0.265888
H      -0.725269    1.619874   -1.095534
H      -0.666795    1.709151    0.685808
H       0.120982   -0.436434   -2.103124
H       1.673899   -0.203747   -1.279166
H       1.284107   -2.299003    0.034289
H      -0.256205   -2.530854   -0.781477
H       0.945735   -2.717795   -2.999087
H       2.487083   -2.480867   -2.185937
H       2.104833   -4.573860   -0.851224
H       0.572037   -4.824119   -1.704174
H       0.562290   -5.852124   -3.476607
