18

N       0.124049    1.380400   -0.183482
C       0.042402   -0.028818   -0.041766
C      -1.051144   -0.832713    0.194825
N      -0.597364   -2.113471    0.384309
C       0.776843   -2.161030    0.211525
C       1.512360   -3.449533    0.308574
O       1.016120   -4.446171   -0.593228
C       1.198529   -0.867107   -0.031874
N       2.496281   -0.375626   -0.274864
H       0.428226    1.642538   -1.116936
H      -0.771166    1.824546   -0.017235
H      -2.099490   -0.588663    0.263487
H      -1.174207   -2.935957    0.402640
H       2.586607   -3.268334    0.151505
H       1.407127   -3.908649    1.299835
H       1.009845   -4.044621   -1.469397
H       3.217251   -0.941276    0.155004
H       2.576122    0.573803    0.076407
