18

C       0.245881    1.419340    0.331198
C      -0.079534   -0.030965   -0.030569
O      -1.475196   -0.227411   -0.198085
C       0.694881   -0.517173   -1.261373
C       2.117024   -1.018454   -1.065792
C       1.018382   -1.998672   -1.356843
C       0.364008    0.177728   -2.477155
C       0.033797    0.775343   -3.469290
H       1.308764    1.539716    0.564232
H       0.005870    2.086944   -0.503049
H      -0.341862    1.724590    1.200702
H       0.198208   -0.682055    0.807107
H      -1.734056    0.246964   -0.997832
H       2.837192   -0.801879   -1.845595
H       2.514734   -0.973300   -0.057158
H       0.653589   -2.627090   -0.551878
H       0.986006   -2.454600   -2.338996
H      -0.233466    1.295783   -4.355487
