17

N       0.675625    0.939081   -0.128275
C       0.292503   -0.255475   -0.011292
O      -1.027693   -0.543076   -0.026100
C      -1.426522   -1.875684    0.208565
C      -2.219801   -2.143151    1.510467
C      -3.205390   -3.030938    0.675713
C      -2.644139   -2.342076   -0.615731
C      -2.918127   -4.455211    0.752343
N      -2.675571   -5.584472    0.810764
H       1.692340    0.982180   -0.115587
H       0.930031   -1.143876    0.098956
H      -0.574456   -2.556872    0.102646
H      -1.701213   -2.610983    2.347739
H      -2.719706   -1.231747    1.844502
H      -4.266817   -2.871266    0.872516
H      -3.265678   -1.487361   -0.889683
H      -2.467822   -2.968144   -1.490464
