17

C      -0.053923    1.556210   -0.064867
C       0.024540    0.033779    0.016242
O       0.795963   -0.473691   -1.085940
C       1.840532   -1.223914   -0.619067
O       2.635977   -1.762468   -1.339512
C       1.776145   -1.223299    0.864676
C       2.785327   -1.951220    1.682915
O       2.478179   -1.774737    3.052901
C       0.722159   -0.498808    1.236518
H       0.944874    1.994368    0.011324
H      -0.501096    1.860673   -1.014346
H      -0.670897    1.945006    0.751060
H      -0.985279   -0.390758   -0.072603
H       2.779906   -3.013739    1.389790
H       3.788608   -1.570782    1.430603
H       3.132068   -2.253333    3.570009
H       0.393462   -0.299345    2.247168
