14

C       0.013303    1.479647    0.009206
N      -0.039051    0.032742    0.001474
C      -1.162042   -0.775008    0.004534
C      -0.738556   -2.056301   -0.006249
O       0.652883   -2.063501   -0.016273
C       1.097213   -0.761400   -0.010869
O       2.250473   -0.426464   -0.017799
C      -1.427936   -3.274725   -0.009045
C      -2.018608   -4.324601   -0.011472
H       1.067089    1.761161    0.002511
H      -0.477704    1.894817   -0.876619
H      -0.463631    1.884821    0.907275
H      -2.163774   -0.381402    0.013855
H      -2.539233   -5.250127   -0.013595
