17

C      -0.071679    1.483027    0.044528
C      -0.037777   -0.010905   -0.043497
C       0.828045   -0.952004   -0.947441
C       1.945427   -0.890588    0.088217
N       0.722308   -0.890628    1.001392
C       0.023803   -1.862134    0.021165
C      -1.239240   -0.989259   -0.046299
C      -2.142597   -0.972315    1.093731
N      -2.883929   -0.947412    1.980412
H       0.939883    1.898156    0.088101
H      -0.577401    1.908772   -0.828252
H      -0.610608    1.795958    0.943825
H       0.858850   -0.991599   -2.041605
H       2.576722   -1.775292    0.214424
H       2.547828    0.019842    0.156474
H       0.099035   -2.940575    0.158550
H      -1.798904   -1.040770   -0.984368
