16

O      -0.136896    0.014176    0.025539
C      -0.018044    1.203568   -0.139130
C       1.245582    1.936883    0.063184
C       1.314845    3.393852    0.341006
N       1.731812    2.957504   -0.986824
C       3.112915    2.377127   -0.821655
C       2.626997    1.278236    0.179910
C       3.245837    1.201689    1.488499
C       3.773135    1.169930    2.568635
H      -0.864067    1.841333   -0.479384
H       0.380445    3.947376    0.335165
H       2.055900    3.742925    1.057146
H       3.465359    1.973926   -1.771183
H       3.838033    3.094388   -0.428674
H       2.609280    0.293191   -0.292542
H       4.232932    1.124716    3.524911
