23

C      -1.466715   -0.095168   -0.201763
C       0.062839   -0.067372   -0.069919
C       0.486634   -0.620925    1.295231
O       0.028941    0.288738    2.291168
C       0.768689   -0.819568   -1.209327
O       0.410921   -2.182377   -1.067827
C       0.570588   -0.175857   -2.618872
C       1.960634    0.496916   -2.480295
C       2.294227   -0.494669   -1.335684
H      -1.812299    0.448717   -1.085468
H      -1.822280   -1.126740   -0.278506
H      -1.918607    0.366676    0.678838
H       0.401994    0.976383   -0.103892
H       0.051718   -1.619849    1.433593
H       1.580669   -0.728743    1.342983
H       0.155303   -0.122614    3.150540
H       0.817504   -2.675855   -1.786764
H       0.569612   -0.950320   -3.393895
H      -0.300782    0.463578   -2.774420
H       2.610777    0.482117   -3.357138
H       1.887422    1.527868   -2.125619
H       2.811650   -0.107471   -0.454759
H       2.843404   -1.369345   -1.700596
