15

C      -0.085882    1.451705    0.053653
N      -0.025603    0.007074    0.164047
C      -1.068954   -0.691694    0.087573
O      -2.362884   -0.150500   -0.111435
C      -3.254413   -1.180736   -0.152079
O      -4.433173   -1.048970   -0.329866
C      -2.499383   -2.454425    0.044479
N      -3.208341   -3.608007    0.085090
C      -1.193021   -2.136548    0.177759
H       0.557025    1.768111   -0.775803
H      -1.091798    1.855005   -0.101235
H       0.338527    1.891991    0.963263
H      -4.167171   -3.548479   -0.222290
H      -2.744517   -4.492887   -0.027117
H      -0.340871   -2.780187    0.329602
