20

C       0.022096    1.539796   -0.010203
C      -0.002048    0.014403    0.035968
O       0.714149   -0.489081    1.160066
C      -1.439791   -0.549083   -0.001121
O      -2.155914   -0.035833   -1.125143
C      -1.465848   -2.076829    0.041456
C      -2.873572   -2.645926    0.158854
O      -2.771137   -4.062771    0.139108
H       1.052595    1.904113   -0.030459
H      -0.511414    1.910350   -0.887840
H      -0.472617    1.957026    0.877103
H       0.536894   -0.384445   -0.835534
H       0.382753   -0.035436    1.943240
H      -1.979047   -0.149769    0.871096
H      -1.785276   -0.446648   -1.914906
H      -0.998973   -2.474206   -0.871649
H      -0.854336   -2.424239    0.878594
H      -3.337043   -2.292850    1.095447
H      -3.493458   -2.274160   -0.669748
H      -3.660309   -4.426936    0.174322
