13

N       0.061721    1.079917    0.225697
C      -0.239402   -0.097805   -0.096658
O      -0.307195   -1.051679    0.868546
C      -0.684277   -2.339768    0.462113
C      -2.151577   -2.450375    0.059411
O      -2.868301   -1.502338   -0.114384
C      -2.669346   -3.896586   -0.144912
O      -3.791352   -4.126653   -0.496896
H       0.088238    1.674303   -0.599844
H      -0.445014   -0.477058   -1.105140
H      -0.070068   -2.712499   -0.376351
H      -0.486703   -3.006960    1.309029
H      -1.932753   -4.706713    0.056560
