12

O      -0.061419   -0.007927    0.031200
C       0.001818    1.193100   -0.048370
C       1.283286    1.947499    0.009580
C       1.321917    3.292425   -0.082187
C       2.600136    3.994662   -0.020860
O       2.760666    5.181332   -0.090764
O       3.722286    3.184308    0.133960
N       3.685078    1.801097    0.228561
C       2.529112    1.238612    0.167928
H      -0.902054    1.825616   -0.171536
H       0.434834    3.905351   -0.202571
H       2.533325    0.156987    0.244797
