14

C       0.022994    1.460056    0.019667
N      -0.004521    0.010930    0.011824
C      -0.122338   -0.837942   -1.064202
N      -0.117055   -2.110587   -0.759592
N       0.013633   -2.079103    0.611450
C       0.103250   -2.883856    1.717758
N       0.218315   -2.122318    2.784421
N       0.208093   -0.780875    2.412720
C       0.084233   -0.815272    1.109608
H       0.963181    1.820780    0.445698
H      -0.067925    1.820127   -1.006223
H      -0.806267    1.853390    0.613959
H      -0.211353   -0.469692   -2.074984
H       0.081149   -3.959667    1.694650
