16

C      -0.081156    1.527139   -0.014628
C      -0.022269    0.022743   -0.026576
C       0.012691   -0.746530    1.268225
C       1.355058   -0.551747    2.017319
C       1.374498   -1.239981    3.305631
N       1.370979   -1.788465    4.322697
N       0.002122   -0.683439   -1.092332
O      -0.022447    0.115944   -2.242276
H       0.833238    1.956573   -0.438280
H      -0.904843    1.874733   -0.645210
H      -0.217142    1.916750    0.996510
H      -0.805213   -0.415536    1.918750
H      -0.133911   -1.807502    1.056614
H       2.178721   -0.929371    1.401932
H       1.549868    0.512402    2.191707
H      -0.029362   -0.540348   -2.947231
