19

C      -0.277209    1.275501   -0.072312
O       0.035965   -0.094783    0.011730
C       0.581987   -0.605394   -1.180612
C       0.864155   -2.075591   -0.986135
O      -0.345607   -2.907444   -1.047646
C       0.084762   -3.543967   -2.190846
N      -0.494760   -4.355441   -2.951840
C       1.446499   -2.854616   -2.201673
N       1.898426   -2.109722   -3.357028
H       0.613547    1.885415   -0.291817
H      -1.029973    1.475361   -0.851045
H      -0.682879    1.576738    0.896208
H      -0.111695   -0.460035   -2.025916
H       1.526449   -0.099265   -1.441470
H       1.370248   -2.233130   -0.030216
H      -1.442917   -4.559043   -2.630134
H       2.241544   -3.534954   -1.886655
H       2.440512   -2.711458   -3.966864
H       1.107601   -1.789275   -3.907429
