15

N       0.538248    1.182787    0.368485
C       0.243509   -0.150613    0.105056
N      -0.954398   -0.679294    0.330474
N      -0.809224   -1.993573    0.018967
C       0.433873   -2.312622   -0.401308
C       1.152609   -1.137499   -0.354126
O       2.453954   -0.930918   -0.749275
C       3.381789   -0.825882    0.243834
N       4.576183   -0.565073   -0.054839
H       1.169499    1.587692   -0.310913
H      -0.298429    1.743531    0.464577
H      -1.603237   -2.601284    0.111187
H       0.716474   -3.308202   -0.702202
H       2.955079   -0.994987    1.239338
H       5.144273   -0.528643    0.788980
