16

C      -0.025667    1.529970   -0.137415
C      -0.001959    0.039087    0.085529
O       1.250086   -0.639104   -0.082520
C       0.635894   -0.659284    1.219748
C       1.387307    0.080285    2.305684
C       0.101599   -2.015488    1.633111
H       0.812480    2.033139    0.347557
H       0.026348    1.748362   -1.209455
H      -0.959467    1.957597    0.244255
H      -0.839470   -0.484587   -0.383747
H       1.803473    1.022204    1.946480
H       0.730810    0.289521    3.157507
H       2.217514   -0.534819    2.670147
H       0.919678   -2.663832    1.966212
H      -0.607822   -1.920614    2.462630
H      -0.402571   -2.506193    0.797044
