15

O      -0.140753    1.420845    0.010150
C      -0.083488    0.029820    0.039355
C      -0.430570   -0.780691    1.273560
C      -1.558201   -0.120517    2.013156
O      -1.753010    0.080806    3.177511
C      -2.451813    0.004247    0.761491
C      -1.352701   -0.743912   -0.028222
C      -1.590947   -1.793002   -0.957130
C      -1.806047   -2.677853   -1.743613
H       0.557199    1.766266    0.577629
H       0.734095   -0.407506   -0.534120
H       0.223042   -1.561294    1.644271
H      -3.363626   -0.585393    0.882223
H      -2.693020    1.009010    0.412690
H      -1.995903   -3.457441   -2.439184
