18

C      -0.225865    1.639758    0.254301
C       0.050630    0.151305    0.089610
C      -1.209722   -0.628489   -0.287638
O       0.993988    0.026023   -1.032697
C       1.954972   -0.900210   -0.798757
N       2.823877   -1.310103   -1.618642
C       1.850349   -1.361323    0.646366
O       2.493281   -2.233740    1.158677
C       0.783961   -0.482660    1.285711
H       0.700290    2.182880    0.461661
H      -0.670456    2.050959   -0.656344
H      -0.919894    1.806766    1.083697
H      -1.620390   -0.253149   -1.228605
H      -0.989259   -1.693698   -0.410052
H      -1.971213   -0.524849    0.491506
H       2.705071   -0.857768   -2.528195
H       1.292470    0.278183    1.889720
H       0.135898   -1.057688    1.949218
