19

O      -0.120013   -0.030806   -0.181707
C       0.021169    1.160303   -0.066678
C       1.343158    1.883992   -0.165786
C       1.352443    2.968889   -1.253093
C       0.415700    4.198744   -0.980297
C       1.513801    5.281185   -0.935120
C       2.382166    4.978249   -2.175385
C       2.684919    3.762157   -1.276722
O       2.540760    4.635139   -0.113417
H      -0.859169    1.817841    0.121357
H       1.547180    2.372285    0.797177
H       2.122304    1.136913   -0.347495
H       1.153145    2.514259   -2.228836
H      -0.323847    4.368178   -1.766945
H      -0.105852    4.130194   -0.022792
H       1.252373    6.288045   -0.610907
H       1.899806    4.824018   -3.144207
H       3.236650    5.650683   -2.251189
H       3.621227    3.204159   -1.304713
