17

N      -0.121803   -1.168911   -0.154925
C      -0.081697   -0.017182   -0.060231
C       0.009952    1.434704    0.051789
N      -0.291878    2.014554    1.419912
C       0.745948    1.498419    2.339260
C       1.118869    2.599394    1.431148
C       1.415413    2.071442    0.050030
C       2.701587    1.552098   -0.516181
C       2.053961    2.790257   -1.095698
H      -0.663557    1.895276   -0.675589
H       0.526892    1.747022    3.372670
H       1.147355    0.500326    2.182727
H       1.301664    3.614645    1.767791
H       3.601476    1.670275    0.078230
H       2.661526    0.634793   -1.094392
H       1.585635    2.716570   -2.072146
H       2.514415    3.752166   -0.894067
