20

C      -0.050293    1.587815    0.088733
N      -0.003540    0.128522   -0.021632
C       0.689843   -0.419181   -1.197462
C      -0.058276   -0.025874   -2.506801
N      -1.459213   -0.406752   -2.573274
C       2.193134   -0.028168   -1.282382
O       2.887210   -0.340305   -0.091591
C       0.644996   -1.890037   -1.063430
N       0.668767   -3.042439   -0.973407
H       0.928545    2.089590    0.060979
H      -0.675674    2.014166   -0.700605
H      -0.523109    1.834017    1.043049
H       0.454115   -0.243683    0.803688
H       0.024909    1.060876   -2.619608
H       0.472276   -0.468226   -3.355664
H      -1.536664   -1.416805   -2.653927
H      -1.909576   -0.163347   -1.694676
H       2.648318   -0.502383   -2.163150
H       2.271015    1.054955   -1.411028
H       2.986454   -1.298315   -0.046271
