13

N       0.005945    1.310039    0.007684
C      -0.059499   -0.025138    0.000615
N      -1.192202   -0.676262    0.003712
C      -1.094173   -2.030517   -0.004368
O      -2.282351   -2.661137   -0.000748
N      -0.018995   -2.765960   -0.014799
N       1.147456   -2.043640   -0.017737
C       1.273256   -0.693048   -0.011019
O       2.333680   -0.078319   -0.013975
H       0.924210    1.726243    0.004243
H      -0.831450    1.865954    0.015399
H      -2.094582   -3.609121   -0.007094
H       1.991538   -2.598566   -0.025842
