25

C       0.042661    1.596159   -0.004937
C      -0.023887    0.072857    0.125222
C      -1.452064   -0.457003    0.080190
O      -1.407788   -1.862608    0.237477
C      -2.609533   -2.561628   -0.025789
C      -3.719688   -2.203109    0.961602
C      -3.086701   -2.589722   -1.515906
C      -3.223990   -4.132566   -1.402134
C      -2.348495   -4.086314   -0.121186
H       1.077174    1.949589    0.032773
H      -0.389172    1.936392   -0.952911
H      -0.506161    2.090970    0.804126
H       0.550057   -0.404662   -0.677210
H       0.433985   -0.248639    1.067914
H      -2.049737    0.013602    0.877172
H      -1.925235   -0.189401   -0.879109
H      -4.047141   -1.164934    0.847637
H      -4.594562   -2.841728    0.804725
H      -3.370346   -2.346342    1.989329
H      -3.979670   -2.015892   -1.777678
H      -2.268674   -2.304018   -2.182606
H      -4.251406   -4.444425   -1.196728
H      -2.848150   -4.725824   -2.237857
H      -1.292811   -4.264743   -0.337624
H      -2.649036   -4.699124    0.732538
