18

O       0.018940   -0.044109   -0.086801
C      -0.031635    1.171639   -0.016946
N      -1.224754    1.845874   -0.003958
C      -1.397075    3.289929   -0.095750
C      -0.171291    4.004224    0.457228
C       0.308379    3.531301    1.873252
C       1.556276    2.938532    1.219649
C       1.167587    3.511963   -0.132632
C       1.204266    2.020113    0.056136
H      -2.031761    1.250272   -0.117121
H      -1.576715    3.603912   -1.136187
H      -2.285024    3.572185    0.483438
H      -0.308714    5.084703    0.391600
H       0.548888    4.380216    2.517157
H      -0.346993    2.845282    2.417741
H       2.538117    2.869118    1.671506
H       1.767857    4.022846   -0.875026
H       2.065798    1.504959   -0.353008
