21

C       0.170241    1.576368   -0.043610
C       0.211382    0.046826   -0.069570
C       0.539186   -0.566311    1.307065
C       0.573391   -2.060657    1.325521
C      -0.277502   -2.981038    1.893932
C       0.217578   -4.286800    1.602566
C       1.359972   -4.130188    0.850916
N       2.249303   -5.038227    0.232582
N       1.564487   -2.780841    0.687337
H       1.132654    1.994867    0.272455
H      -0.063154    1.987074   -1.030818
H      -0.590912    1.938995    0.656414
H      -0.751310   -0.351163   -0.411203
H       0.954212   -0.288705   -0.805078
H       1.498372   -0.156107    1.657237
H      -0.212459   -0.236273    2.033127
H      -1.155911   -2.739255    2.474066
H      -0.201632   -5.228976    1.922328
H       3.077912   -5.207660    0.797041
H       1.796135   -5.932854    0.090066
H       2.295834   -2.399075    0.112074
