21

C       0.025471    1.565885    0.180491
C      -0.005722    0.048737   -0.081910
C      -1.391742   -0.537990   -0.024077
C      -2.011019   -1.035038   -1.117696
C      -3.381619   -1.478823   -1.197924
C      -4.432252   -0.999126   -0.477495
C      -4.362764    0.052818    0.508224
C      -3.291703    0.319240    1.279415
C      -2.095259   -0.595289    1.317080
H       1.051806    1.944601    0.144332
H      -0.566070    2.101003   -0.568307
H      -0.384750    1.810048    1.165694
H       0.435667   -0.155427   -1.063500
H       0.631758   -0.448248    0.663576
H      -1.439283   -1.098674   -2.042340
H      -3.609780   -2.175991   -2.001692
H      -5.426021   -1.345984   -0.751759
H      -5.244052    0.684231    0.602638
H      -3.285675    1.205868    1.907774
H      -2.429516   -1.625387    1.503229
H      -1.414767   -0.316110    2.125945
