21

O       0.087360    1.400891   -0.138780
C       0.061508   -0.013654   -0.020090
C      -1.364337   -0.568881   -0.005895
C      -1.412827   -2.084971    0.025252
O      -0.788674   -2.529614    1.209905
C      -0.793987   -3.947879    1.311105
C      -2.225901   -4.480948    1.233731
C      -2.891427   -3.902597   -0.016962
O      -2.760750   -2.486970   -0.039692
H      -0.313487    1.767428    0.655759
H       0.602582   -0.390964   -0.895530
H       0.604681   -0.356869    0.870612
H      -1.906086   -0.200444    0.873753
H      -1.901554   -0.223738   -0.894176
H      -0.871787   -2.520933   -0.840430
H      -0.184618   -4.382297    0.500002
H      -0.314922   -4.193941    2.262256
H      -2.229599   -5.576196    1.202285
H      -2.780870   -4.160321    2.121471
H      -2.432058   -4.334740   -0.922825
H      -3.962886   -4.116312   -0.047207
