19

C      -0.167793    1.535874    0.140446
N       0.029328    0.102442    0.081846
C      -1.172972   -0.752327    0.299922
C      -0.364779   -1.552964    1.298825
N      -0.484750   -2.616213    1.972395
O      -1.733992   -3.222309    1.736549
C       0.740329   -0.566328    1.190859
C       2.218380   -0.780166    1.313535
C       1.496169    0.074911    2.330432
H       0.794430    2.051120    0.052418
H      -0.784540    1.848280   -0.708331
H      -0.659245    1.879795    1.069046
H      -2.022183   -0.229156    0.764986
H      -1.524488   -1.280462   -0.591783
H      -1.685296   -4.009121    2.289793
H       2.555334   -1.768095    1.608026
H       2.846730   -0.276086    0.586523
H       1.653774    1.147531    2.290758
H       1.329778   -0.323206    3.325526
