20

C       0.542550    1.416059    0.133838
C      -0.006534    0.015343    0.032790
N       0.320635   -0.729210   -0.936025
C      -0.084823   -2.088856   -1.223910
C      -1.042698   -2.805036   -0.273206
C      -2.283165   -1.935461    0.070142
C      -1.506448   -1.428095    1.310405
C      -0.597371   -2.678078    1.209478
O      -0.827320   -0.195101    1.109175
H       1.200645    1.614058   -0.710469
H      -0.275561    2.143453    0.145471
H       1.094008    1.539843    1.071449
H      -0.524689   -2.082294   -2.231979
H       0.836559   -2.682794   -1.313308
H      -1.235509   -3.815235   -0.646370
H      -2.602500   -1.183111   -0.655478
H      -3.146323   -2.536025    0.369245
H      -2.065584   -1.278090    2.235460
H      -0.980276   -3.490278    1.833089
H       0.465809   -2.534762    1.418322
