16

C      -0.072876    1.506341    0.049739
C       0.050790    0.021482    0.079270
C       1.234466   -0.815453   -0.340146
C       0.633909   -0.987875    1.038883
O       1.301271   -0.813237    2.224408
C      -0.719377   -1.706657    0.911612
O      -1.155928   -0.756276   -0.090438
C      -0.728424   -3.094744    0.447519
N      -0.700068   -4.195411    0.095924
H       0.880250    1.969239    0.319090
H      -0.348000    1.850267   -0.953043
H      -0.838854    1.845980    0.752814
H       1.132024   -1.578844   -1.106542
H       2.183036   -0.286781   -0.324516
H       2.031713   -1.441291    2.266462
H      -1.319342   -1.612118    1.823575
