16

O      -0.103813    1.419342   -0.103508
C      -0.004510    0.039448   -0.097012
C       0.474722   -0.819634   -1.284779
C      -0.302301   -1.961446   -0.533158
C      -1.251532   -0.854607    0.084394
N      -1.117364   -0.950066    1.565384
C       0.351333   -0.721748    1.272972
C       0.635654   -2.098771    0.665989
O       1.393962   -2.968186    0.986017
H       0.781213    1.797554   -0.049931
H      -0.031841   -0.518687   -2.205688
H       1.542509   -0.969226   -1.468626
H      -0.660040   -2.850922   -1.042215
H      -2.225882   -0.685042   -0.371125
H      -1.492999   -0.087214    1.958853
H       0.996292   -0.329671    2.056710
