21

C       0.192722    1.628636    0.530237
O       0.582341    0.389960   -0.018610
C       0.693910   -0.623759    0.931773
C      -0.593061   -1.279050    1.534625
C      -0.006023   -2.690077    1.205329
C       0.184383   -3.675177    2.334094
C      -0.471031   -3.186312   -0.174363
O       0.500943   -2.359504   -0.852107
C       1.134215   -1.991697    0.386073
H       0.912973    1.983720    1.284762
H       0.155147    2.349706   -0.289603
H      -0.800551    1.577457    1.001443
H       1.375097   -0.323773    1.747557
H      -0.761962   -1.081599    2.595827
H      -1.504620   -1.045202    0.978212
H      -0.782943   -4.035087    2.705604
H       0.762624   -4.547346    2.010479
H       0.709126   -3.218418    3.180238
H      -0.280680   -4.254039   -0.356474
H      -1.501326   -2.950044   -0.469191
H       2.197969   -2.248504    0.401113
