20

C      -0.216148    1.020848   -1.829425
C      -0.041699   -0.165724   -0.903709
C       1.329075   -0.632558   -0.387232
C       2.575540    0.095932   -0.697381
O       3.645781   -0.445002   -0.855298
C       0.253806   -0.069284    0.562357
C       0.457183    1.276745    1.236973
C      -0.396885   -1.094503    1.475048
H       0.399298    1.879302   -1.553619
H       0.040849    0.750010   -2.858824
H      -1.260225    1.352464   -1.825068
H      -0.680034   -1.003329   -1.176803
H       1.487962   -1.705579   -0.340750
H       2.489646    1.200824   -0.784146
H       0.890589    2.034191    0.582186
H      -0.504135    1.663049    1.594901
H       1.115597    1.175890    2.106684
H       0.211589   -1.269160    2.369500
H      -1.382490   -0.745665    1.805780
H      -0.533353   -2.054698    0.968822
