15

O      -0.053827    1.383086    0.039738
C      -0.007733   -0.012342    0.044584
C      -0.397689   -0.760904   -1.201565
C      -1.301784   -0.795322    0.029882
C      -1.079622   -1.942687    0.955703
C       0.146331   -1.916948    1.486238
C       0.931499   -0.701581    1.039932
H       0.672014    1.703059   -0.506892
H      -0.739649   -0.145700   -2.027782
H       0.129848   -1.668154   -1.479837
H      -2.261600   -0.295343   -0.029694
H      -1.827588   -2.706051    1.137431
H       0.557914   -2.662345    2.157001
H       1.899926   -0.966531    0.596391
H       1.140903   -0.022915    1.877925
