17

O       0.082935    1.381757   -0.178454
C       0.095551   -0.029847   -0.037864
C      -1.344643   -0.562526   -0.026766
O      -2.064300   -0.012010   -1.128109
C      -1.402498   -2.092420   -0.133968
C      -2.813183   -2.638367   -0.276228
O      -3.304417   -3.434395    0.482748
C      -2.095479   -0.056653    1.214897
O      -1.654936    0.763304    1.984745
H      -0.227421    1.726221    0.670351
H       0.619197   -0.429303   -0.911749
H       0.629344   -0.348890    0.866210
H      -1.702779    0.882453   -1.235303
H      -0.849359   -2.373667   -1.040238
H      -0.928508   -2.563947    0.732080
H      -3.368920   -2.254414   -1.155864
H      -3.129550   -0.446498    1.320804
