17

C       0.717097    0.528305    0.590766
C      -0.518598    0.162140   -0.202839
O      -1.602665    0.651283    0.030975
C      -0.392593   -0.884092   -1.304660
C       0.948244   -1.180757   -2.077901
C       0.841959   -2.643294   -1.632153
N       0.881534   -2.624039   -0.150995
C      -0.396030   -2.364423   -0.857596
H       1.424910    1.069114   -0.049098
H       0.436336    1.164560    1.431273
H       1.225070   -0.380293    0.928296
H      -1.214753   -0.712042   -2.002071
H       0.829411   -1.037534   -3.153371
H       1.846969   -0.662138   -1.738330
H       1.135038   -3.529507   -2.180694
H       0.850182   -3.591539    0.168774
H      -1.269030   -2.975645   -0.666658
