15

O      -0.164928    0.585740   -0.453491
C       0.071411    1.687981   -0.022497
N       1.276301    2.069648    0.544099
C       2.575944    1.676653    0.054074
C       2.163092    3.121929    0.088061
C       1.882307    3.862076   -1.212940
C       0.915954    4.943942   -1.052453
C       0.120217    5.830535   -0.896181
H      -0.677953    2.498941    0.028964
H       3.273747    1.295660    0.794233
H       2.605504    1.175790   -0.911034
H       2.556412    3.751803    0.883531
H       2.829338    4.267413   -1.592240
H       1.525221    3.149532   -1.967367
H      -0.584836    6.614587   -0.769141
