18

C       1.043880    0.087079    0.871864
C       0.155158   -0.447295   -0.240985
O       0.571427   -0.555077   -1.375067
C      -1.264236   -0.821049    0.074294
C      -1.516490   -1.723900    1.239984
N      -1.943537   -0.331634    1.301565
C      -2.242520   -0.930629   -1.101232
C      -2.321711    0.257877   -2.030147
O      -2.947965   -1.902910   -1.217630
H       2.083846    0.000308    0.555374
H       0.823506    1.149619    1.032693
H       0.906985   -0.427231    1.827263
H      -2.314739   -2.447715    1.116509
H      -0.668847   -2.048355    1.836433
H      -1.301507    0.221432    1.865543
H      -1.387945    0.342362   -2.592459
H      -3.161695    0.131129   -2.713702
H      -2.444555    1.179871   -1.451157
