13

C      -0.043747    1.558393    0.054375
C       0.011994    0.019226   -0.015533
C       0.687891   -0.473659   -1.203055
C       1.254710   -0.870409   -2.199426
C       1.885647   -1.312407   -3.308542
C       2.453915   -1.710322   -4.307642
C       3.088847   -2.154528   -5.423779
N       3.632695   -2.535102   -6.379800
H       0.962541    1.984175    0.064905
H      -0.579027    1.967898   -0.805741
H      -0.561616    1.869271    0.965505
H       0.522281   -0.376718    0.872087
H      -1.005162   -0.392857    0.009424
