17

O       0.124696    1.398672   -0.011620
C       0.111079   -0.007727    0.007550
C      -1.327798   -0.563245    0.005648
C      -1.516818   -2.064658   -0.032104
C      -1.066214   -2.880520    1.170625
C      -2.474135   -2.378226    1.085359
O      -2.747109   -1.189545    1.811919
C      -2.063714   -0.141646    1.281547
O      -2.043228    0.939467    1.807766
H      -0.446017    1.690967    0.714235
H       0.628474   -0.348811   -0.895084
H       0.660369   -0.415436    0.871750
H      -1.850643   -0.094290   -0.837192
H      -1.599694   -2.560562   -0.990791
H      -0.902317   -3.939616    1.006802
H      -0.415839   -2.429464    1.912606
H      -3.337967   -3.024907    1.012042
