16

C       0.225353    1.520848    0.205939
C      -0.215933    0.096781   -0.145057
C       0.582620   -0.487580   -1.298476
N       1.923278   -0.998960   -0.972203
C       0.898928   -1.963764   -1.396464
C       0.414198   -2.890005   -0.401111
N       0.003060   -3.638897    0.377049
C       0.421098    0.177285   -2.576788
N       0.305041    0.722762   -3.589907
H       1.282489    1.539204    0.486505
H       0.081552    2.203901   -0.637072
H      -0.357119    1.900692    1.049139
H      -0.084533   -0.564910    0.715404
H      -1.278434    0.075259   -0.411494
H       2.583149   -0.837564   -1.729664
H       0.960935   -2.382371   -2.397008
