15

O      -0.185060    0.294127    0.603375
C       0.032314    1.391016    0.139703
N       1.257839    1.826868   -0.276266
C       2.437982    0.983569   -0.187614
C       2.981307    0.699145   -1.526445
N       3.416085    0.478163   -2.573343
C       3.472504    1.622165    0.731217
C       4.909330    1.661853    0.443940
O       4.077930    2.812281    0.239443
H      -0.745728    2.164993    0.007282
H       1.369582    2.763122   -0.634486
H       2.090811    0.041887    0.253914
H       3.134178    1.673808    1.766126
H       5.608987    1.736653    1.273869
H       5.293273    1.202401   -0.463454
