17

C       0.055454    1.465343    0.047700
N       0.074257    0.004621    0.025213
C      -1.098582   -0.811143    0.531610
C      -0.090736   -2.015939    0.500282
O       0.372039   -2.459991   -0.716229
C       0.629446   -0.798731    1.184446
C      -0.677558   -0.619847    2.027042
C      -0.966082    0.592343    2.767442
N      -1.221172    1.509745    3.424882
H       1.072035    1.819110   -0.151315
H      -0.580468    1.807565   -0.774894
H      -0.296883    1.931373    0.972833
H      -2.097861   -0.727064    0.103360
H      -0.324290   -2.871318    1.134743
H       0.553016   -1.642420   -1.210859
H       1.661120   -0.700074    1.523484
H      -0.915752   -1.471642    2.673754
