21

C      -0.047810    1.572757    0.064265
C      -0.006011    0.035330    0.013054
C       0.695540   -0.490425   -1.218684
C      -0.007342   -0.736136   -2.401235
C       0.643228   -1.189364   -3.544503
C       2.022565   -1.413114   -3.549687
C       2.732449   -1.879635   -4.797133
C       2.724889   -1.173714   -2.365644
C       2.073867   -0.720473   -1.222586
H       0.963652    1.991427    0.064113
H      -0.573481    1.978622   -0.805956
H      -0.561087    1.922414    0.965904
H       0.498383   -0.340866    0.910733
H      -1.030448   -0.353587    0.045414
H      -1.082400   -0.578842   -2.424881
H       0.068716   -1.379630   -4.446884
H       3.068263   -1.031198   -5.406667
H       3.618732   -2.473613   -4.554934
H       2.077226   -2.489394   -5.426320
H       3.796350   -1.351579   -2.335894
H       2.645234   -0.550788   -0.313855
