17

C       0.014901    1.520394    0.035677
C      -0.024356    0.024285   -0.057652
C      -0.882750   -0.798830    0.839248
C      -1.708128   -1.910082    0.433124
N      -2.384483   -2.812651    0.177821
N       0.593715   -0.908442    0.977914
C       1.042703   -1.808993   -0.147591
C       0.533020   -0.796384   -1.214386
O      -0.428576   -1.164881   -2.167080
H       0.998948    1.901917   -0.254956
H      -0.732796    1.962598   -0.631635
H      -0.192385    1.856885    1.055157
H      -1.312162   -0.249510    1.673071
H       2.127464   -1.919847   -0.115111
H       0.566324   -2.792544   -0.145952
H       1.376256   -0.266687   -1.679191
H      -0.021768   -1.750536   -2.813969
