14

O      -0.345208    0.385052    0.738607
C      -0.099295    1.401564    0.178850
O      -0.986012    2.247934   -0.457493
C       0.081171    3.206594   -0.786465
C       1.121705    2.314235   -0.092253
N       1.644595    3.081777    1.033719
C       0.644859    4.076611    1.437899
C      -0.049018    4.436474    0.121621
O      -0.580772    5.473172   -0.160755
H       0.120608    3.416169   -1.853197
H       1.915754    1.855142   -0.683335
H       1.951151    2.486492    1.794057
H      -0.122368    3.704000    2.138366
H       1.109362    4.958505    1.885093
