14

N      -0.101152    1.163377   -0.687921
C      -0.010942    0.068501   -0.051131
C      -1.258869   -0.596205    0.481019
C      -1.166325   -2.082409    0.771063
O      -2.129472   -2.796672    0.905542
N       0.124086   -2.567419    0.930292
C       1.321114   -1.893700    0.715333
O       2.399681   -2.409561    0.889458
N       1.178214   -0.590349    0.266089
H       0.812852    1.524223   -0.968348
H      -1.524335   -0.113325    1.430993
H      -2.090658   -0.415214   -0.199297
H       0.219486   -3.539057    1.194410
H       2.057019   -0.151619    0.028862
