17

C      -0.154269    1.540965    0.167567
C       0.005596    0.029574    0.018627
O      -1.242144   -0.634826    0.102853
C       0.812164   -0.439085   -1.235033
C       2.003107   -0.876746   -0.322438
C       1.122380   -0.576796    0.869825
N       1.128177   -0.787407    2.116632
O       2.307069   -1.434976    2.527379
H       0.802416    2.059918    0.049651
H      -0.852054    1.913009   -0.588909
H      -0.547788    1.787057    1.159698
H      -1.528538   -0.595072    1.022427
H       0.313032   -1.277146   -1.722466
H       1.029505    0.336202   -1.971645
H       2.332840   -1.915279   -0.406280
H       2.887503   -0.235061   -0.383905
H       2.162780   -1.542026    3.473859
