16

C      -0.018805    1.547455    0.054292
C       0.021841    0.051147    0.030489
C       0.015498   -0.772720   -1.075541
O       0.062727   -2.095943   -0.655301
C       0.099068   -2.082737    0.681677
N       0.212784   -3.305056    1.289194
C       0.074701   -0.796550    1.170417
C      -0.036082   -0.513693   -2.488568
O      -0.043530   -1.351931   -3.370474
H       0.870251    1.952065    0.550543
H      -0.067526    1.974718   -0.948623
H      -0.889527    1.903705    0.615780
H      -0.099480   -4.084560    0.728205
H      -0.101898   -3.344505    2.246016
H       0.097183   -0.501624    2.207649
H      -0.071417    0.572832   -2.724390
