10

O      -0.059489    1.338137    0.009887
C       1.252624    1.724195   -0.000659
N       2.131782    0.777883   -0.014109
N       1.332605   -0.347950   -0.012551
C       1.338390   -1.718766   -0.019968
N       0.091340   -2.134843   -0.010394
N      -0.780637   -1.041854    0.003981
C       0.018005   -0.019636    0.001804
H       1.456056    2.782515    0.003110
H       2.222774   -2.332047   -0.031739
