21

C       0.108606    1.366060    0.153456
O       0.213017   -0.034660    0.089583
C       0.485552   -0.502174   -1.216009
C       0.570476   -2.004214   -1.160217
C       1.178443   -2.830407   -2.260396
C       1.759981   -2.235252   -3.524007
C       1.899497   -2.719227   -0.915558
C       3.121443   -1.980216   -0.800645
C       4.156565   -1.373390   -0.703261
H       1.044680    1.861554   -0.149846
H      -0.702398    1.747352   -0.488641
H      -0.109891    1.631465    1.190789
H      -0.321086   -0.193856   -1.904925
H       1.422424   -0.064200   -1.590971
H      -0.277525   -2.445130   -0.643996
H       0.698310   -3.793298   -2.414677
H       2.348527   -1.338141   -3.321370
H       2.423185   -2.955436   -4.014293
H       0.967886   -1.974058   -4.234069
H       1.848455   -3.595189   -0.275534
H       5.068686   -0.839102   -0.606081
