17

C       0.444655    1.414791    0.208062
O      -0.034782    0.083465    0.218273
C       0.629879   -0.743205    1.163090
C      -0.108326   -2.005092    1.265660
C      -0.707476   -3.038438    1.379481
C       2.043465   -0.979945    0.822626
C       3.199818   -1.148037    0.530041
C       4.613684   -1.362500    0.222650
O       5.487716   -0.483196    0.914729
H       1.503388    1.465992   -0.077980
H      -0.154188    1.955026   -0.527602
H       0.322096    1.893859    1.192025
H       0.603687   -0.250121    2.152694
H      -1.238906   -3.953609    1.469801
H       4.866240   -2.417586    0.414029
H       4.793373   -1.184580   -0.843242
H       5.297226   -0.566285    1.854945
