15

O      -0.097289    1.418075   -0.100439
C      -0.075336    0.032307   -0.106159
C       0.743936   -0.731533   -1.078028
C       0.140839   -1.897931   -1.325570
N      -1.076489   -2.077422   -0.519583
C      -0.448863   -2.729329    0.631291
N      -0.108383   -1.988755    1.610834
C      -0.527150   -0.663950    1.262622
C      -1.364799   -0.714804    0.022215
H       0.676865    1.735029    0.376932
H       1.668354   -0.375529   -1.512448
H       0.470523   -2.720031   -1.945647
H      -0.240054   -3.791299    0.567248
H      -0.716812    0.036783    2.065489
H      -2.354022   -0.294220   -0.119897
