17

O       0.479125    0.874100   -0.864690
C       0.107237   -0.185836   -0.036438
C       0.042202   -0.014322    1.520482
C      -1.331870   -0.724874    1.516578
O      -2.432720    0.208889    1.570879
C      -2.525832    0.254407    0.122808
C      -2.434308    1.603256   -0.424410
C      -2.396452    2.724647   -0.860108
C      -1.346956   -0.746230   -0.039390
H      -0.161751    1.587351   -0.752320
H       0.787039   -1.006778   -0.285569
H       0.847337   -0.506554    2.070835
H      -0.044648    1.021165    1.858015
H      -1.489321   -1.592026    2.159890
H      -3.476097   -0.189595   -0.202526
H      -2.369863    3.712779   -1.250381
H      -1.558539   -1.614858   -0.661142
