21

C       0.027799    1.620151    0.110709
C      -0.145819    0.107000   -0.064246
C       0.663831   -0.504170   -1.209404
C       0.220133    0.035361   -2.588204
C       0.935903   -0.611160   -3.758956
O       0.421837   -1.413792   -4.496306
C       2.205166   -0.551211   -1.038264
O       2.234625   -1.946224   -1.397320
C       0.804767   -2.049494   -1.212395
H       1.082246    1.886849    0.243977
H      -0.352269    2.181190   -0.748318
H      -0.514210    1.970155    0.994021
H       0.150734   -0.394992    0.865323
H      -1.208074   -0.128024   -0.212153
H      -0.852682   -0.139915   -2.720940
H       0.406321    1.116087   -2.631088
H       1.989543   -0.291135   -3.913911
H       2.823149    0.062523   -1.703259
H       2.532559   -0.390735   -0.000670
H       0.554226   -2.513930   -0.248618
H       0.323477   -2.602361   -2.025049
