18

C      -0.204958    1.543949   -0.038823
C      -0.021195    0.031195   -0.014446
O      -1.251653   -0.647214   -0.175331
C       1.164155   -0.470193   -0.915724
C       1.987503   -0.640184    0.362212
C       3.273720   -1.285503    0.608877
O       3.150851    0.145299    0.598356
C       0.741421   -0.493484    1.236978
H       0.743793    2.059945    0.136861
H      -0.584888    1.872823   -1.014594
H      -0.918430    1.852277    0.731747
H      -1.700676   -0.276642   -0.942952
H       0.916246   -1.424185   -1.389002
H       1.567346    0.223752   -1.657644
H       3.481665   -1.728162    1.582725
H       3.836160   -1.711146   -0.221801
H       0.825387    0.181078    2.092062
H       0.334036   -1.454951    1.560063
