21

C      -0.203835    1.595968   -0.032684
C      -0.015493    0.079242    0.002689
N       0.790739   -0.426288   -1.116006
C       2.180601    0.019698   -1.059953
C       0.642298   -1.845463   -1.313838
C       1.188849   -2.501773   -2.608135
O       1.946733   -3.462679   -1.811210
C       1.564281   -2.864163   -0.625988
N       1.908429   -3.099686    0.556589
H       0.726050    2.136357    0.165293
H      -0.584420    1.913325   -1.008254
H      -0.922941    1.896627    0.735434
H       0.409918   -0.222780    0.975481
H      -0.999834   -0.396648   -0.069366
H       2.697810   -0.302793   -0.141517
H       2.736891   -0.370251   -1.916603
H       2.222907    1.109232   -1.119576
H      -0.406129   -2.108514   -1.149814
H       0.458551   -3.005731   -3.245117
H       1.852060   -1.878760   -3.211706
H       2.581120   -3.867715    0.606695
