14

C      -0.014189    1.522329    0.008991
C      -0.005796    0.028533    0.055055
C      -0.034450   -0.824153   -1.012092
O      -0.016302   -2.177496   -0.638305
C       0.023925   -2.102189    0.686908
C       0.033569   -0.850533    1.199526
N       0.076720   -0.960904    2.589541
C       0.088646   -2.239110    2.788202
O       0.057806   -3.039049    1.645125
H       0.881120    1.936599    0.484972
H      -0.050943    1.885967   -1.021206
H      -0.878760    1.928458    0.544968
H      -0.068003   -0.661879   -2.075838
H       0.119695   -2.779410    3.719996
