18

C      -0.268635    1.321098    0.065316
O       0.210011   -0.013338   -0.070953
C       0.794412   -0.500044    1.053720
C       0.238680   -0.954316    2.385158
C       0.908034   -1.960785    1.462987
C       2.244383   -1.632977    2.188163
C       3.395615   -2.477011    2.615816
C       2.143929   -0.200875    1.787416
N       1.550516   -0.650836    3.101785
H       0.551157    2.018890    0.280400
H      -0.727653    1.589723   -0.887895
H      -1.014029    1.393614    0.867296
H      -0.741409   -0.933035    2.844550
H       0.516539   -2.835618    0.963650
H       3.933486   -2.879914    1.750506
H       4.094868   -1.879217    3.208834
H       3.059828   -3.317963    3.232613
H       2.888298    0.585942    1.731481
