13

C      -0.023173    1.497187   -0.035743
C      -0.024385   -0.013274    0.032139
O      -0.041712   -0.630697    1.077914
C      -0.002953   -0.739587   -1.258108
C       0.000323   -2.088594   -1.440737
O       0.022354   -2.335376   -2.773974
C       0.031799   -1.102220   -3.347466
N       0.017574   -0.122969   -2.510097
H       0.863491    1.851274   -0.571832
H      -0.887657    1.851669   -0.606546
H      -0.042804    1.904715    0.975167
H      -0.010498   -2.935226   -0.777520
H       0.049624   -1.072031   -4.425369
