14

N      -0.082694    1.373074    0.011129
C      -0.033370    0.093956    0.003554
N       1.157680   -0.667919   -0.007925
N       1.296555   -1.984745   -0.016258
C       0.200312   -2.701646   -0.013801
C       0.343199   -4.180291   -0.023145
O       1.384658   -4.785777   -0.031644
C      -1.103303   -2.089484   -0.002505
C      -1.219068   -0.745515    0.005852
H       0.846434    1.797029    0.007984
H       2.037054   -0.167138   -0.010338
H      -0.636669   -4.710332   -0.019005
H      -1.981423   -2.727729   -0.000899
H      -2.172515   -0.232460    0.014475
