19

C      -0.987732    1.451232    0.197985
C      -0.210315    0.150434    0.007801
C      -1.118640   -1.078571    0.159217
C       0.739332    0.065602   -1.234976
C       1.939394   -0.377619   -0.325915
C       3.229454    0.250499   -0.480870
C       4.289891    0.804558   -0.600377
C       1.048902    0.027569    0.890651
O       1.277903    0.254102    2.039290
H      -0.338833    2.325421    0.088279
H      -1.793545    1.530523   -0.539914
H      -1.434091    1.488576    1.196451
H      -1.911161   -1.055084   -0.596549
H      -0.565587   -2.015505    0.035243
H      -1.587629   -1.092836    1.147765
H       0.454895   -0.647362   -2.010202
H       0.921857    1.040804   -1.689217
H       2.040027   -1.470476   -0.327500
H       5.230340    1.286526   -0.703259
