18

C      -0.105563    1.386290   -0.033075
N       0.216389   -0.030745   -0.050077
C       0.012870   -0.766470    1.183956
C       0.091912   -0.708304   -1.229626
N       0.053248   -2.041090   -1.329725
N      -0.005839   -2.194050   -2.658022
C      -0.062325   -3.489768   -3.296965
N      -0.019336   -1.063350   -3.332654
N       0.037958   -0.097074   -2.447426
H       0.431801    1.864297    0.791555
H       0.205035    1.841395   -0.973108
H      -1.182844    1.570833    0.102871
H      -1.053283   -0.918797    1.415554
H       0.489247   -1.745153    1.112273
H       0.467984   -0.209731    2.008249
H      -0.945939   -4.034846   -2.956217
H      -0.116229   -3.319688   -4.371562
H       0.832606   -4.066302   -3.050670
