20

C       0.312383    1.568166    0.214145
C      -0.139808    0.132634   -0.075576
C       0.593822   -0.493967   -1.261235
C       1.954292   -1.152355   -1.054494
C       0.776046   -2.003701   -1.419420
C       0.183539   -2.997833   -0.452265
O       0.940977   -4.192786   -0.576697
C       0.414154    0.225631   -2.500895
N       0.254751    0.810090   -3.487051
H       1.381235    1.604429    0.448135
H       0.135405    2.219416   -0.646862
H      -0.235486    1.979251    1.066894
H       0.028178   -0.487472    0.809547
H      -1.218369    0.115844   -0.271613
H       2.728574   -0.984391   -1.792931
H       2.304521   -1.190858   -0.027927
H       0.751276   -2.355385   -2.446228
H       0.222139   -2.612319    0.576989
H      -0.875601   -3.169753   -0.700231
H       0.517109   -4.873075   -0.044826
