19

C       0.525389    0.703367    0.539826
N      -0.127578   -0.510476    0.053339
C      -1.579527   -0.384789   -0.118736
C      -2.126353   -1.600519   -0.892493
O      -2.473863   -2.697868   -0.050460
C      -1.865178   -2.653199    1.199218
O      -2.286454   -1.497008    1.934592
C      -2.237059   -0.322578    1.250423
N      -2.696721    0.762186    1.714164
H       1.603876    0.530903    0.591491
H       0.339559    1.587797   -0.092454
H       0.167805    0.939752    1.544886
H       0.277916   -0.776902   -0.837863
H      -1.862518    0.538299   -0.646690
H      -3.040772   -1.320290   -1.422933
H      -1.386164   -1.923075   -1.640556
H      -2.221933   -3.513320    1.767142
H      -0.771829   -2.640517    1.125146
H      -3.094561    0.604205    2.643356
