14

C       0.033129    1.532985    0.034715
C       0.008173    0.029328    0.035785
C      -0.152070   -0.735733   -1.124149
F      -0.288119   -0.087757   -2.279265
N      -0.184996   -2.045241   -1.211055
N      -0.054068   -2.756963   -0.087686
C       0.103195   -2.132743    1.067309
C       0.141907   -0.733869    1.187974
O       0.307367   -0.209848    2.420588
H       0.983101    1.920254    0.423983
H      -0.090082    1.916112   -0.977941
H      -0.775020    1.949574    0.648984
H       0.205022   -2.755399    1.950073
H       0.317242    0.752782    2.371110
