19

C      -0.845800    1.168975    0.549482
O      -0.044454    0.614035    1.568343
C       1.050410   -0.144551    1.103448
C       0.656859   -1.567810    0.672108
N       1.853975   -2.336205    0.390490
C       1.991176   -2.807915   -0.775262
N       3.122806   -3.541202   -1.111254
C       3.346650   -4.086664   -2.354155
O       2.594639   -3.992025   -3.294714
H      -1.377236    0.406038   -0.037967
H      -1.587333    1.807480    1.036139
H      -0.249643    1.783142   -0.143658
H       1.559217    0.367738    0.270645
H       1.759410   -0.215729    1.933884
H       0.125723   -2.033822    1.510845
H      -0.034830   -1.535235   -0.185082
H       1.284103   -2.709414   -1.603669
H       3.807927   -3.669025   -0.379620
H       4.309538   -4.629701   -2.392331
