17

C      -0.261353    1.452722    0.004429
C      -0.019710   -0.019943   -0.042376
C       0.041841   -0.888199   -1.111201
C       0.293902   -2.181551   -0.583670
O       0.460713   -3.303915   -1.359213
C      -0.202582   -4.426141   -0.990630
N       0.066242   -5.523240   -1.550818
C       0.384953   -2.087035    0.786084
N       0.183860   -0.759859    1.096343
H       0.574436    1.993668    0.465240
H      -0.386328    1.840398   -1.008758
H      -1.166943    1.705556    0.569796
H      -0.079391   -0.636266   -2.152685
H      -0.948128   -4.237426   -0.207996
H      -0.541132   -6.253510   -1.184694
H       0.598315   -2.825594    1.539978
H       0.197309   -0.384112    2.028321
