20

C       0.108465    1.579375    0.009519
C      -0.005221    0.051515    0.002442
C      -1.444620   -0.510131    0.013112
C      -2.217553   -0.095185    1.286697
C      -2.241584   -0.081631   -1.241020
C      -1.352102   -2.036058    0.004028
O      -0.336160   -2.682630   -0.008993
C      -2.653492   -2.757425    0.012551
N      -3.656815   -3.332645    0.018995
H       1.162768    1.871357    0.001101
H      -0.361153    2.033513   -0.868307
H      -0.344413    2.024081    0.900866
H       0.512548   -0.347881   -0.876552
H       0.529105   -0.357189    0.867134
H      -2.378509    0.985818    1.288330
H      -3.199684   -0.574323    1.334301
H      -1.662598   -0.359100    2.192489
H      -1.703919   -0.335649   -2.159975
H      -3.224441   -0.560432   -1.275138
H      -2.402544    0.999293   -1.227929
