21

C      -0.037538    1.533434    0.022993
C       0.014636    0.024617    0.002716
C       0.959487   -0.776595   -0.943526
C       0.743784   -1.916862    0.073161
C       0.653121   -0.832799    1.168875
O      -0.197107   -1.259648    2.216458
C      -0.978230   -2.338681    1.671573
C      -0.791100   -2.180163    0.158823
C      -1.304879   -0.753014   -0.204786
H       0.959406    1.966791    0.157953
H      -0.449114    1.930683   -0.912571
H      -0.672228    1.890979    0.841826
H       0.634045   -0.924761   -1.976930
H       1.988267   -0.405196   -0.929906
H       1.404866   -2.779729    0.152615
H       1.582233   -0.431859    1.576799
H      -0.600329   -3.302276    2.045466
H      -2.018899   -2.223389    1.993519
H      -1.189239   -3.000937   -0.438700
H      -2.106586   -0.420275    0.461453
H      -1.660503   -0.670758   -1.236519
