13

O      -0.164066    0.046380   -0.000454
C      -0.006465    1.245928    0.008125
C       1.293946    1.902515   -0.001058
C       2.578160    1.365194   -0.020429
C       3.487666    2.431497   -0.021442
C       2.742577    3.610510   -0.002855
N       1.416741    3.269090    0.009324
C       3.165535    4.958434    0.003967
N       3.500516    6.067816    0.009741
H      -0.874888    1.945012    0.024106
H       2.798868    0.309854   -0.032112
H       4.564762    2.381392   -0.034094
H       0.653774    3.927180    0.023732
