15

C      -0.015404    1.476411   -0.029127
N      -0.055612    0.026803   -0.072635
C      -1.202225   -0.675435    0.167741
O      -2.261300   -0.149931    0.469851
C      -1.094040   -2.150416    0.051965
C      -0.033426   -3.002197   -0.034011
O      -0.447495   -4.270266   -0.091595
N      -1.846574   -4.294076   -0.040689
C      -2.207203   -3.042901    0.049200
H       0.822587    1.823314    0.583773
H       0.077473    1.910787   -1.031522
H      -0.952070    1.815181    0.413813
H       0.741301   -0.461610   -0.445048
H       1.037509   -2.864804   -0.045811
H      -3.252423   -2.778880    0.111006
