12

N       0.020688    1.309095    0.007626
C       0.007962   -0.031086    0.000337
N      -1.171953   -0.632897    0.003562
C      -1.229432   -1.965915   -0.002641
O      -2.139554   -2.727872   -0.001724
O       0.127340   -2.657199   -0.013034
C       1.202743   -1.907958   -0.014328
O       2.341096   -2.586476   -0.024503
N       1.246125   -0.614797   -0.008469
H       0.900085    1.794732    0.005900
H      -0.850817    1.809627    0.014846
H       2.124130   -3.529821   -0.028412
