15

N       0.044563    1.308322   -0.198504
C      -0.024540   -0.037616   -0.093457
C      -1.144102   -0.804195   -0.043916
C      -0.995545   -2.229151    0.014646
N      -2.144097   -3.009720    0.115293
N       0.132448   -2.875049    0.024035
O       1.296424   -2.064395    0.045459
C       1.283642   -0.714868   -0.032030
N       2.353917   -0.020012   -0.032682
H       0.963316    1.709270   -0.075606
H      -0.769801    1.878161   -0.052535
H      -2.137921   -0.371162   -0.037980
H      -2.904792   -2.703233   -0.475653
H      -1.946972   -3.995275   -0.004702
H       3.179450   -0.615451    0.025411
