18

C       0.001789    1.389708   -0.063187
O      -0.051275   -0.019562    0.038393
C       0.636291   -0.555477    1.146615
C       0.046205   -1.935065    1.417885
N       0.956086   -2.698903    2.256365
C       2.232574   -2.371758    2.633484
O       2.861172   -2.985735    3.457924
O       2.780983   -1.280916    2.026193
C       2.131339   -0.734799    0.877761
H       1.023427    1.763203   -0.218966
H      -0.604984    1.667500   -0.927692
H      -0.412306    1.873420    0.833734
H       0.515326    0.087125    2.032472
H      -0.928914   -1.842351    1.907719
H      -0.114659   -2.427783    0.449391
H       0.603276   -3.508375    2.740217
H       2.273077   -1.389143    0.007343
H       2.631526    0.215475    0.680405
