19

C      -0.066066    1.616204   -0.063964
C       1.467120    1.512255    0.012699
C       1.348939    0.194772    0.842388
C       2.451153   -0.481016   -0.007822
C       2.123388   -1.880036   -0.510146
O       1.015325   -1.683402   -1.400271
C       0.651901   -0.310933   -1.334829
C      -0.001874    0.070349    0.009276
C       1.949626    0.510843   -1.100357
H      -0.485359    2.064098    0.841874
H      -0.530733    2.069885   -0.946531
H       2.125268    2.338355    0.278638
H       1.298262    0.155219    1.929622
H       3.464355   -0.329400    0.366312
H       2.951402   -2.339824   -1.066199
H       1.837704   -2.561186    0.303246
H       0.058610   -0.079777   -2.220852
H      -0.843052   -0.538533    0.338202
H       2.549121    0.801923   -1.961168
