18

C       0.062040    1.395872   -0.024771
O      -0.121810   -0.006108    0.087875
C       0.644710   -0.610362    1.107743
C       0.133287   -2.038497    1.348505
C       1.367469   -2.903745    1.240798
N       1.279217   -4.225787    1.524143
C       2.470685   -2.195024    0.882521
C       2.144044   -0.790811    0.726727
O       2.865546    0.120253    0.365220
H       1.093889    1.651007   -0.281538
H      -0.614228    1.736056   -0.813208
H      -0.204806    1.904419    0.915830
H       0.592811   -0.005449    2.027872
H      -0.359754   -2.166912    2.318317
H      -0.594869   -2.297566    0.571539
H       0.374646   -4.663505    1.569260
H       2.056167   -4.832756    1.321153
H       3.461679   -2.596705    0.714027
