21

C       0.025153    1.467130    0.071514
C       0.017472    0.011777    0.015815
C       0.007774   -1.191877   -0.031259
C      -0.001408   -2.658032   -0.085913
C      -1.427624   -3.175102    0.210197
C       0.439495   -3.115449   -1.496331
C       0.991112   -3.178300    1.009037
C       1.121640   -4.684718    1.051817
O       0.655939   -5.383709    1.916542
H       0.692173    1.831519    0.860656
H       0.365606    1.900507   -0.875412
H      -0.975755    1.863032    0.275904
H      -2.130463   -2.795259   -0.536217
H      -1.457220   -4.268854    0.189569
H      -1.765035   -2.844251    1.195937
H       1.465087   -2.800912   -1.710610
H       0.381407   -4.203960   -1.595122
H      -0.213193   -2.673539   -2.253806
H       1.980518   -2.750947    0.805560
H       0.655811   -2.836356    1.991455
H       1.696824   -5.135858    0.211403
