15

C       0.062645    1.534407    0.180428
C      -0.002311    0.030145    0.009055
O       0.679221   -0.568214    1.138165
C       0.721559   -1.907891    1.150284
O       0.247844   -2.627305    0.315189
C       1.472373   -2.366804    2.402575
C       1.574577   -3.816312    2.512196
N       1.673943   -4.960010    2.630439
H       1.099236    1.881620    0.204285
H      -0.444599    2.021632   -0.657265
H      -0.427593    1.844628    1.107291
H      -1.031433   -0.340307   -0.011959
H       0.488254   -0.303763   -0.909945
H       2.472929   -1.921046    2.394813
H       0.965492   -1.960057    3.284331
