15

O       0.167058    1.295603    0.288513
C       0.060477   -0.065236   -0.005558
C      -1.396108   -0.548981    0.052808
C      -1.466236   -2.022810   -0.292386
O      -2.321066   -2.780218    0.089866
C      -0.308969   -2.545334   -1.151162
O       0.372240   -1.551805   -1.931315
C       0.620023   -0.342470   -1.399192
O       1.222296    0.493961   -2.020204
H       0.712219    1.674594   -0.419434
H       0.655708   -0.660720    0.711253
H      -1.840921   -0.377005    1.035082
H      -1.990071    0.014901   -0.678645
H       0.406788   -3.048484   -0.486279
H      -0.685582   -3.283861   -1.859684
