21

C      -1.339219    2.639971    1.172961
C      -0.841723    1.398417    0.422484
C       0.336065    0.704148    1.153319
C       1.516920    1.548008    1.285379
C       2.484684    2.255549    1.375210
C      -1.971497    0.404384    0.247896
O      -3.010247    0.742558   -0.674866
C      -2.212822   -0.416456   -0.952883
C      -1.372883   -0.398953   -2.204590
H      -0.534363    3.369088    1.295887
H      -2.159285    3.109956    0.623673
H      -1.709435    2.373133    2.170239
H      -0.488673    1.710505   -0.564930
H       0.003065    0.384495    2.150554
H       0.606199   -0.213044    0.614432
H       3.344029    2.872837    1.463096
H      -2.348096    0.005296    1.195471
H      -2.750734   -1.354066   -0.793276
H      -0.851526    0.550981   -2.334696
H      -0.632406   -1.206039   -2.179187
H      -2.007341   -0.557362   -3.082940
