23

C       0.123570    1.581222    0.031169
C       0.053764    0.053071   -0.031332
C      -1.379222   -0.484669    0.040359
C      -1.446431   -2.013326   -0.017190
C      -2.882842   -2.553424    0.031092
O      -3.558196   -2.071362   -1.120854
C      -4.951281   -2.300815   -1.110688
C      -2.904686   -4.021872    0.106344
C      -2.913318   -5.222840    0.162526
H       1.157095    1.937305   -0.023719
H      -0.430419    2.036117   -0.797501
H      -0.309871    1.959612    0.963799
H       0.525087   -0.297814   -0.958909
H       0.645629   -0.375201    0.788832
H      -1.851985   -0.134531    0.969276
H      -1.973143   -0.070706   -0.781817
H      -0.980118   -2.381753   -0.938204
H      -0.890563   -2.452553    0.819057
H      -3.381157   -2.157295    0.934426
H      -5.351643   -1.866820   -2.029767
H      -5.187941   -3.373055   -1.085775
H      -5.433857   -1.816311   -0.247369
H      -2.922324   -6.283587    0.215270
