19

C       0.316941    1.484260    0.136766
C      -0.186773    0.050805    0.026003
O      -1.629801    0.057417    0.042702
C      -2.265985   -0.562358    1.052990
O      -3.455835   -0.610368    1.136729
C       0.232155   -0.595271   -1.277853
O       1.616556   -0.922141   -1.399249
C       0.662221   -1.995401   -1.424479
C       0.727079   -3.016089   -0.318177
H       1.408177    1.494390    0.069831
H      -0.090027    2.095885   -0.673724
H       0.016014    1.928309    1.089418
H       0.182164   -0.539225    0.872193
H      -1.569119   -1.012835    1.787527
H      -0.197670   -0.103062   -2.152930
H       0.531163   -2.425480   -2.419425
H       0.886993   -2.557057    0.659666
H      -0.197848   -3.601726   -0.286425
H       1.555100   -3.709043   -0.498633
