16

N       0.213301    0.783781    1.191533
C       0.110815   -0.133599    0.329401
O       1.113815   -0.480462   -0.525332
C       0.786753   -1.543136   -1.430801
O       0.330831   -2.662518   -0.747064
C      -0.911653   -2.424814   -0.080791
C      -1.144715   -0.943200    0.156825
C      -2.417130   -0.440822    0.668111
O      -2.105505   -0.318573   -0.724030
H       1.130926    1.230197    1.128648
H       0.050503   -1.175572   -2.160077
H       1.719815   -1.810843   -1.926230
H      -1.749617   -2.818789   -0.670604
H      -0.858464   -2.966250    0.869231
H      -3.209210   -1.150792    0.903652
H      -2.414564    0.485731    1.235143
