25

C      -1.875237    1.473171   -1.437588
C      -1.827371   -0.053576   -1.343509
C      -1.672892   -0.560469    0.096289
C      -1.597037   -2.073842    0.190290
C      -2.016424   -2.777767    1.458864
C      -2.862270   -2.878215    0.203364
O      -0.564289   -2.673920   -0.548514
C       0.743197   -2.472826   -0.031288
C       1.702854   -3.338731   -0.830895
H      -1.980798    1.806157   -2.474918
H      -2.719613    1.881170   -0.870169
H      -0.961250    1.925131   -1.035436
H      -2.740037   -0.481658   -1.776926
H      -0.998519   -0.441235   -1.946241
H      -0.777659   -0.112301    0.549083
H      -2.518403   -0.217087    0.705389
H      -1.455091   -3.660471    1.744189
H      -2.384533   -2.185598    2.290018
H      -3.809521   -2.350631    0.170811
H      -2.844094   -3.820062   -0.332266
H       1.034146   -1.414178   -0.108382
H       0.772196   -2.741244    1.035746
H       2.728002   -3.203994   -0.472742
H       1.436482   -4.395453   -0.737113
H       1.667999   -3.071619   -1.891023
