17

C      -0.079627    1.478046    0.025105
C       0.029126   -0.015817   -0.020024
C       0.950944   -0.855327   -0.906152
C       0.094392   -2.065731   -0.441596
N       0.477231   -2.162745    1.020496
C      -0.311824   -0.916984    1.175488
C      -1.086285   -1.050119   -0.104187
C      -0.000947   -3.284438   -1.199037
N      -0.100285   -4.261537   -1.809694
H       0.837512    1.927938    0.421475
H      -0.253880    1.893653   -0.973243
H      -0.908722    1.795098    0.666633
H       0.794702   -0.633265   -1.964314
H       2.016373   -0.918285   -0.669328
H      -0.079453   -2.919144    1.421071
H      -0.603538   -0.522192    2.139698
H      -2.129881   -0.996144   -0.384194
