18

C       0.014555    1.663737    0.023964
C       1.534232    1.515559    0.295366
C       1.297682   -0.014187    0.536560
C      -0.049535    0.133968   -0.229014
C       2.304204   -0.997585    0.058304
C       2.579944   -1.559252   -1.171002
N       3.652796   -2.391639   -1.058865
N       4.069528   -2.385319    0.173501
N       3.260094   -1.547049    0.852013
H      -0.532821    1.948125    0.927073
H      -0.291457    2.323882   -0.789614
H       2.127089    1.675006   -0.609230
H       1.975382    2.090878    1.112608
H       1.096863   -0.182473    1.600746
H      -0.906303   -0.423216    0.155596
H       0.071325   -0.101287   -1.289880
H       2.074031   -1.420348   -2.112436
H       3.416488   -1.403570    1.837302
