23

C      -0.098485    1.459244    0.350318
C      -0.011819   -0.030816    0.051694
C       1.295812   -0.539649   -0.529734
C       0.922357   -0.859553    0.898176
C      -1.271182   -0.642991   -0.457244
C      -1.964402   -1.656343    0.069140
C      -3.210996   -1.985150   -0.715915
C      -3.004376   -1.201438   -2.037373
C      -1.964186   -0.106102   -1.700281
H       0.867032    1.844811    0.692553
H      -0.386992    2.030147   -0.538926
H      -0.838687    1.661395    1.132607
H       1.249291   -1.346659   -1.252738
H       2.087989    0.180277   -0.708995
H       1.462358   -0.356601    1.693534
H       0.646232   -1.882041    1.127317
H      -1.701601   -2.172757    0.985979
H      -3.343421   -3.060457   -0.883229
H      -4.108991   -1.648887   -0.176783
H      -2.588992   -1.874162   -2.794748
H      -3.934840   -0.795496   -2.442762
H      -2.447250    0.857431   -1.483854
H      -1.265056    0.081597   -2.523623
