21

C       0.113475    1.514642   -0.127765
C      -0.004943    0.004617    0.059537
O       0.736076   -0.450250    1.188953
C      -1.467594   -0.507364    0.115779
C      -2.258562    0.086720    1.288910
O      -2.040642   -0.114144   -1.126382
C      -1.435819   -2.061143    0.208700
C      -2.757768   -2.644859    0.021628
C      -3.867941   -3.069576   -0.168300
H       1.162429    1.788088   -0.271186
H      -0.463118    1.839640   -0.996036
H      -0.259689    2.056540    0.749614
H       0.456697   -0.488997   -0.803827
H       0.573051    0.161190    1.914575
H      -2.386227    1.163736    1.158754
H      -3.251490   -0.369018    1.344250
H      -1.755967   -0.100715    2.243693
H      -2.882204   -0.579049   -1.214891
H      -0.762461   -2.439679   -0.569543
H      -1.007533   -2.359572    1.170065
H      -4.835821   -3.479790   -0.319634
