16

O       0.101838    1.342926    0.040991
C       0.097041   -0.009467    0.075083
N       0.267775   -0.740219   -1.025246
N       0.188928   -2.035905   -0.604992
C       0.029379   -2.107645    0.737381
C      -0.055334   -0.826152    1.211927
N      -0.385236   -0.778365    2.587661
C      -0.093379   -2.162497    3.067102
C      -0.243746   -3.101535    1.823560
H       0.237369    1.597469   -0.880300
H       0.347504   -2.768444   -1.272530
H       0.134834   -0.083836    3.111052
H       0.937992   -2.238335    3.440158
H      -0.770884   -2.437310    3.879453
H      -1.261394   -3.508283    1.751861
H       0.445932   -3.949333    1.874639
