18

C      -0.604774    1.393314    0.128917
C      -0.083312   -0.025394   -0.036345
C       0.762189   -0.402493   -1.289507
C       1.791260    0.638123   -1.767502
O       2.781533    0.159060   -0.820313
C       1.919685   -0.890119   -0.377159
C       1.094297   -0.524601    0.900779
C       1.696389    0.439749    1.802419
N       2.150446    1.219694    2.525200
H       0.200467    2.132891    0.124855
H      -1.303237    1.641003   -0.677484
H      -1.136588    1.500476    1.079375
H      -0.915614   -0.727910    0.060360
H       0.277006   -1.011813   -2.050325
H       2.132692    0.489771   -2.798746
H       1.552102    1.696127   -1.619221
H       2.395414   -1.873505   -0.395587
H       0.807885   -1.411690    1.472871
