15

N      -0.103941    1.281896    0.281945
C       0.090347   -0.003838   -0.122886
O       1.118204   -0.438199   -0.587351
C      -1.203538   -0.861595   -0.006242
N      -0.967592   -2.281766   -0.270678
C      -1.422001   -2.907289    0.739870
N      -1.982368   -2.115912    1.743432
C      -1.882932   -0.785370    1.366276
N      -2.244176    0.279900    1.963076
H       0.719036    1.861796    0.333308
H      -0.881440    1.482377    0.902983
H      -1.892710   -0.464754   -0.762741
H      -1.405508   -3.985557    0.857878
H      -2.333998   -2.444391    2.627411
H      -2.673106    0.104641    2.871032
