15

C      -0.081349    1.540026    0.031758
C       0.146377    0.061232    0.011257
O      -0.708859   -0.775622    0.826488
C       0.696410   -0.796167    1.070559
C       1.388037   -1.991123    0.431454
N       1.119756   -1.792139   -0.984460
C       0.447490   -0.643175   -1.307261
O       0.156737   -0.257796   -2.418102
H       0.819918    2.073843   -0.285072
H      -0.881971    1.798830   -0.666988
H      -0.359538    1.870696    1.034873
H       1.024360   -0.423566    2.036357
H       2.464281   -1.979910    0.648114
H       0.970316   -2.935760    0.800058
H       1.299676   -2.492482   -1.685616
