13

N      -0.096805    1.388885    0.151183
C       0.044040    0.006868    0.046433
N      -1.028673   -0.785534    0.013237
N      -0.523403   -2.036317   -0.006765
C       0.837547   -2.064123   -0.004062
C       1.245112   -0.737452    0.034138
C       1.569272   -3.269169   -0.028418
C       2.180830   -4.306451   -0.051087
H       0.588513    1.904980   -0.383084
H      -1.033986    1.687593   -0.086301
H      -1.145964   -2.825053   -0.033736
H       2.259777   -0.377061    0.062145
H       2.726858   -5.217073   -0.069335
