18

C      -0.031807    1.540988    0.018846
C       0.032195    0.003500    0.007348
C       0.715740   -0.517855   -1.269119
C       0.739148   -0.512430    1.241082
N       0.049289   -1.297355    2.085625
C       0.723903   -1.717077    3.146757
C       2.053472   -1.348983    3.338411
N       2.685896   -0.567489    2.465719
N       2.017946   -0.143311    1.401387
H       0.975757    1.965797    0.017772
H      -0.562795    1.902860   -0.867016
H      -0.557999    1.911980    0.903980
H      -0.985253   -0.396523    0.055905
H       1.750740   -0.168527   -1.318753
H       0.722544   -1.611922   -1.299846
H       0.184310   -0.157680   -2.155401
H       0.201463   -2.355467    3.856181
H       2.629570   -1.677560    4.197253
