16

C      -0.466420    1.827499   -0.151553
N      -0.725474    0.402398   -0.077348
C      -0.016522   -0.454297   -0.656918
O      -0.457708   -1.781354   -0.568642
C       0.470326   -2.716412   -0.213527
C      -0.154189   -4.082894   -0.145882
O       1.619618   -2.442281    0.015331
C       1.184098   -0.272481   -1.555810
O       1.854761    0.726771   -1.571396
H       0.098436    2.121530    0.741039
H       0.105506    2.145858   -1.026103
H      -1.426966    2.348741   -0.112329
H      -0.613766   -4.333036   -1.106100
H       0.607028   -4.817933    0.111274
H      -0.949356   -4.086656    0.605092
H       1.372783   -1.121602   -2.241503
