20

C       0.129967    1.395338   -0.078664
C      -0.094834   -0.122007   -0.090962
C       0.416933   -0.776133    1.197197
C      -1.586504   -0.420689   -0.331834
N      -1.877626   -1.832589   -0.505967
C      -2.624463   -2.561132    0.350671
O      -3.162356   -2.172452    1.373282
C      -2.765011   -4.024842   -0.080443
O      -2.257235   -4.481522   -1.072564
H       1.189814    1.632223    0.054623
H      -0.202988    1.860950   -1.012473
H      -0.420834    1.865929    0.744205
H       0.467146   -0.542249   -0.938327
H       0.269809   -1.859684    1.182606
H       1.485983   -0.584654    1.332829
H      -0.110214   -0.379189    2.072080
H      -2.184657   -0.086158    0.520967
H      -1.931606    0.127188   -1.217838
H      -1.512192   -2.334544   -1.303829
H      -3.384241   -4.618600    0.620379
