20

C       0.275746    0.998486    0.455534
C      -0.087393   -0.311123   -0.251699
N       0.588919   -0.497383   -1.526773
C       2.019995   -0.805667   -1.546229
C       2.355728   -2.028702   -0.819360
C       2.638132   -3.029117   -0.211749
C       2.988268   -4.246833    0.505336
C      -0.077969   -0.406490   -2.712791
O       0.414031   -0.534604   -3.814957
H       1.341705    1.044441    0.697612
H       0.029654    1.862321   -0.169369
H      -0.279531    1.082750    1.394882
H       0.146436   -1.165426    0.394172
H      -1.164465   -0.341304   -0.445666
H       2.286885   -0.893009   -2.603679
H       2.589677    0.038487   -1.135599
H       3.857428   -4.734862    0.050995
H       3.232585   -4.040594    1.553111
H       2.161735   -4.965582    0.490915
H      -1.154151   -0.194075   -2.558692
