17

C      -0.105372    1.509606   -0.027377
C      -0.056404    0.023695   -0.023384
C      -0.015187   -1.065125   -1.071727
C       1.256763   -1.596100   -0.448558
N       0.892688   -0.863726    0.833193
C      -0.335674   -1.631276    1.290953
C      -1.062230   -1.075875    0.080135
O      -2.415495   -0.955514   -0.155598
H       0.831714    1.942999   -0.392986
H      -0.917685    1.852710   -0.676152
H      -0.288775    1.900032    0.979521
H      -0.339450   -1.008949   -2.104701
H       1.394336   -2.677122   -0.327310
H       2.166654   -1.160162   -0.871045
H      -0.183461   -2.711236    1.404418
H      -0.702534   -1.207656    2.229776
H      -2.726676   -1.759714   -0.585878
