15

N       0.084666   -1.150505    0.058693
C       0.035444    0.001814    0.006506
C       0.013416    1.469850   -0.104587
O      -0.862259    1.951719    0.927038
C      -0.661372    3.219329    1.392908
N       0.368196    3.942773    1.301600
C       1.518525    3.396316    0.650986
C       2.162060    2.155806    1.239416
C       1.408458    2.067668   -0.057399
H      -0.442490    1.723563   -1.071333
H      -1.552001    3.558441    1.915465
H       2.174995    4.151157    0.233589
H       3.241654    2.068120    1.201767
H       1.703409    1.744690    2.132289
H       1.972340    1.913380   -0.971437
