16

C      -0.304421   -1.259694    0.013868
C      -0.168041   -0.066012    0.043534
C      -0.018517    1.371975    0.055866
C      -0.276219    2.128788    1.372639
N       0.745200    1.671124    2.335191
C       1.080996    2.730190    1.363119
C       1.452925    2.024199    0.045404
C       2.618573    1.169169    0.023546
C       3.594164    0.468321   -0.013747
H      -0.415394   -2.315457    0.002856
H      -0.592680    1.818652   -0.761105
H      -1.224066    2.534128    1.702667
H       0.549410    2.126925    3.225592
H       1.421255    3.706313    1.684121
H       1.497792    2.745364   -0.775902
H       4.450521   -0.158890   -0.031889
