21

C      -0.069173    1.492555   -0.024410
C       0.007836   -0.012766    0.018446
C      -0.810138   -0.817283    0.999088
C       0.697684   -0.796415    1.115772
C       1.413692   -1.916477    0.421552
C       2.899784   -2.129789    0.553128
C       1.909288   -3.173701    1.052273
O       0.818424   -2.051630   -0.853112
C       0.370364   -0.759578   -1.259528
H       0.855818    1.928024   -0.420301
H      -0.894901    1.832080   -0.661160
H      -0.234144    1.908515    0.974177
H      -1.371281   -0.261358    1.742805
H      -1.282515   -1.734599    0.661906
H       1.174709   -0.305939    1.956225
H       3.443863   -2.361132   -0.355758
H       3.452797   -1.547723    1.283537
H       1.780434   -3.299216    2.121881
H       1.813413   -4.084804    0.472273
H      -0.468975   -0.908970   -1.947458
H       1.165629   -0.214205   -1.794260
