19

C      -0.055998    1.561331    0.000386
C       0.093501    0.053783    0.082042
C       1.331160   -0.726350   -0.227176
C       2.591825   -0.010937    0.260765
C       2.042530   -0.082171    1.728143
O       1.989767    1.059705    2.543489
C       0.738653   -0.729518    1.219010
C       0.036736   -1.754808    1.913235
C      -0.544066   -2.617819    2.520317
H       0.870342    2.099379    0.218153
H      -0.360032    1.855206   -1.010252
H      -0.828961    1.916013    0.691079
H      -0.802053   -0.466727   -0.250603
H       1.321976   -1.560632   -0.917318
H       3.505338   -0.594378    0.132541
H       2.764905    0.991732   -0.140482
H       2.612863   -0.818621    2.298438
H       1.329636    1.662122    2.189716
H      -1.054842   -3.379338    3.055038
