17

O      -0.128076    0.045666   -0.201646
C      -0.127115    1.229463   -0.011462
C      -1.184069    2.290517   -0.012982
C      -0.946497    3.237038    1.157330
C      -0.046961    3.354668   -0.020142
C       1.025050    2.264858    0.047687
C       2.192120    2.245105    1.054148
O       3.167898    2.161955   -0.002495
C       2.142389    2.138315   -1.012357
H      -2.131475    2.265343   -0.535924
H      -1.710830    4.000241    1.261050
H      -0.572462    2.854840    2.103107
H       0.003340    4.236351   -0.645891
H       2.303249    3.157189    1.654613
H       2.226632    1.367856    1.712192
H       2.133758    1.194527   -1.570460
H       2.224821    2.980669   -1.710996
