20

C       0.786518    1.292913   -0.214238
C       0.314850   -0.165451   -0.184229
C      -1.205748   -0.334864   -0.015798
C      -1.985720    0.043354   -1.276469
O      -3.368849    0.028581   -0.947842
C      -1.594365   -1.780410    0.385726
O      -1.171709   -2.757167   -0.553255
C      -1.103437   -2.105331    1.739399
N      -0.684770   -2.358033    2.786834
H       1.876297    1.343665   -0.295662
H       0.368880    1.845556   -1.061011
H       0.496317    1.816915    0.702370
H       0.639288   -0.673003   -1.102374
H       0.816883   -0.674204    0.648301
H      -1.551411    0.320251    0.794491
H      -1.676532    1.039374   -1.622664
H      -1.754994   -0.681482   -2.070219
H      -3.877035    0.091291   -1.761337
H      -2.686389   -1.837221    0.394692
H      -0.211547   -2.826571   -0.508043
