18

N       0.304239    1.272679   -0.064571
C       0.182793    0.021909    0.044737
O      -0.988803   -0.571863   -0.258109
C      -1.114290   -1.957009    0.019935
C      -1.776573   -2.365500    1.373595
C      -2.859133   -3.143730    0.581778
O      -4.054819   -2.374976    0.381268
C      -3.555435   -1.843911   -0.873115
C      -2.247186   -2.650535   -0.763974
H       1.252851    1.551693    0.176858
H       0.961975   -0.686020    0.361697
H      -0.148640   -2.452814   -0.134262
H      -1.134913   -2.967268    2.021981
H      -2.194837   -1.530850    1.939344
H      -3.060301   -4.183256    0.849151
H      -4.197747   -2.141378   -1.709642
H      -3.450780   -0.754896   -0.859847
H      -1.971576   -3.281560   -1.607309
