17

C      -0.045055    1.476046    0.015671
N       0.036525    0.031220    0.013989
C       0.152485   -0.797581   -1.053241
O       0.215454   -0.269627   -2.291648
N       0.186735   -2.062749   -0.742516
C       0.078371   -2.098421    0.647572
C       0.063771   -3.377880    1.413412
C      -0.005852   -0.824626    1.124859
O      -0.189069   -0.311228    2.374615
H       0.912566    1.931799   -0.257594
H      -0.805965    1.816463   -0.691194
H      -0.319815    1.795385    1.021857
H       0.272238   -1.020691   -2.895929
H       1.005164   -3.928296    1.299624
H      -0.095202   -3.184593    2.477913
H      -0.737701   -4.037533    1.063068
H       0.657566   -0.265130    2.833293
