21

C       0.004720    1.338224   -0.354449
C       1.450895    1.527037    0.142583
C       1.279203    0.117260    0.752790
C       2.147145   -1.000489    0.176715
C       1.757358   -2.345700    0.804410
C       1.796047   -2.234965    2.328715
O       0.948581   -1.197385    2.794628
C       1.304042    0.068978    2.280752
O      -0.086574    0.032258    0.247334
H      -0.735916    2.033269    0.059431
H      -0.122159    1.298159   -1.443248
H       2.213743    1.603347   -0.634616
H       1.597925    2.329978    0.868848
H       2.040274   -1.022444   -0.912766
H       3.199833   -0.773937    0.397696
H       0.740637   -2.608070    0.492970
H       2.427755   -3.144313    0.467868
H       1.440413   -3.152433    2.806076
H       2.832907   -2.056415    2.667465
H       2.313473    0.363932    2.624927
H       0.580082    0.780870    2.687716
