22

C      -0.046947    1.576509   -0.144961
C      -0.075776    0.089508    0.099699
O       1.152323   -0.631212   -0.050266
C       0.542795   -0.597171    1.248908
C       1.301172    0.094427    2.332887
N       0.793927   -0.111334    3.706625
C       2.132844   -0.617527    3.351673
C       2.276134   -2.126253    3.354527
C       3.340676    0.121591    3.895055
H       0.828600    2.048428    0.305280
H      -0.019971    1.779204   -1.220745
H      -0.948381    2.047453    0.261946
H      -0.931175   -0.417832   -0.353082
H       0.089660   -1.539196    1.556229
H       1.651761    1.090164    2.071881
H       0.863955    0.753251    4.237853
H       1.351104   -2.619868    3.053484
H       3.076754   -2.442825    2.677430
H       2.527071   -2.479093    4.361281
H       3.520247   -0.147551    4.942774
H       4.244600   -0.131145    3.330153
H       3.204266    1.206791    3.841319
