17

C      -0.022861    1.391558    0.120539
C       1.349983    2.077018    0.000843
C       1.877301    2.233708   -1.406253
C       2.209941    1.238108   -2.228210
C       2.094679   -0.226364   -1.875244
N       0.745761   -0.735543   -2.164577
C      -0.139037   -0.575966   -1.282110
O       0.026137   -0.034676   -0.031795
H      -0.416674    1.551529    1.128987
H      -0.733125    1.820285   -0.596026
H       1.254289    3.065508    0.464082
H       2.054200    1.513348    0.625577
H       1.966537    3.254132   -1.771989
H       2.549289    1.472451   -3.233666
H       2.796982   -0.810714   -2.475680
H       2.342018   -0.373445   -0.815845
H      -1.148884   -0.953600   -1.455351
