12

C      -0.015269    1.327794    0.009899
C       1.271784    1.835402   -0.000136
N       1.847614    3.057280    0.000595
C       3.155362    3.057454   -0.012391
N       3.986302    1.962312   -0.026431
C       3.414427    0.797636   -0.026922
N       2.060580    0.687999   -0.014036
N       1.297347   -0.435822   -0.012281
N       0.055633   -0.025007    0.002089
H      -0.954386    1.853950    0.021935
H       3.657938    4.019553   -0.012298
H       3.981185   -0.128259   -0.037402
