23

C       0.033281    1.557711   -0.033466
C       0.009297    0.027693   -0.003772
C      -1.411681   -0.545797    0.022788
C      -1.455884   -2.068745    0.012747
C      -2.871762   -2.648291    0.128023
C      -2.819761   -4.162952   -0.090946
O      -2.145097   -4.468507   -1.304187
C      -0.858272   -3.911867   -1.313202
O      -0.865957   -2.514058   -1.212760
H       1.058744    1.939853   -0.050347
H      -0.479680    1.944145   -0.921286
H      -0.465337    1.982500    0.845411
H       0.533156   -0.372527   -0.877897
H       0.559447   -0.331798    0.876323
H      -1.942130   -0.192844    0.917163
H      -1.976985   -0.179636   -0.843972
H      -0.847171   -2.456643    0.851258
H      -3.300531   -2.419673    1.110466
H      -3.508693   -2.191505   -0.637703
H      -2.303090   -4.648598    0.755202
H      -3.819397   -4.597787   -0.170855
H      -0.260083   -4.342500   -0.485550
H      -0.406731   -4.162832   -2.275283
