15

C       0.020390    1.559883    0.010166
C      -0.007995    0.029416    0.002292
C      -1.431644   -0.535183    0.012989
C      -1.445263   -2.076833    0.004778
C      -2.797319   -2.630704    0.014540
N      -3.873945   -3.050610    0.022710
H       1.047231    1.937147    0.002283
H      -0.492682    1.969703   -0.866524
H      -0.475655    1.960283    0.900896
H       0.524066   -0.344785   -0.882362
H       0.540957   -0.354145    0.872497
H      -1.970520   -0.177691    0.897947
H      -1.987426   -0.168255   -0.857529
H      -0.921921   -2.455996   -0.881121
H      -0.905151   -2.465506    0.876408
