19

C       0.347788    1.042714    0.369202
O      -0.055558   -0.298701    0.160615
C      -1.414307   -0.435882   -0.154154
C      -1.705586   -1.920181   -0.356663
C      -1.980734   -2.381893    1.082959
C      -2.706136   -1.141435    1.660278
O      -2.246798   -0.023314    0.922298
C      -4.213386   -1.309797    1.515573
O      -4.891390   -0.774377    0.681194
H       1.420870    1.026259    0.571504
H       0.161643    1.658004   -0.524236
H      -0.177216    1.493363    1.219332
H      -1.670225    0.207051   -1.007795
H      -2.595446   -2.036264   -0.981213
H      -0.866692   -2.433085   -0.827389
H      -2.579865   -3.293911    1.144488
H      -1.043635   -2.547825    1.618395
H      -2.483697   -1.002161    2.727028
H      -4.648213   -2.025014    2.254861
