19

C       0.007045    1.549426   -0.001202
C       0.086843    0.041510    0.112650
C       1.312727   -0.813567   -0.153431
C       2.595755   -0.118543    0.357805
C       1.965110   -0.093309    1.803234
C       0.697272   -0.746290    1.239274
O       0.012891   -1.752181    1.900663
C       3.804615   -0.909594    0.236237
C       4.801280   -1.574843    0.134052
H       0.887812    2.049387    0.410586
H      -0.087829    1.858469   -1.047857
H      -0.865947    1.934682    0.537306
H      -0.802023   -0.469595   -0.255453
H       1.306469   -1.619281   -0.876443
H       2.765306    0.874498   -0.072606
H       2.494540   -0.776195    2.468454
H       1.869736    0.885386    2.284797
H      -0.736766   -1.359693    2.360906
H       5.683342   -2.158518    0.043095
