21

C      -0.175485    1.570580   -0.049350
C       0.042363    0.058585   -0.010055
C       0.808091   -0.521777   -1.227469
C       1.414523   -1.827719   -0.721410
C       2.591292   -1.714875    0.227487
O       3.067924   -0.424379    0.523180
C       2.169574    0.154538    1.477831
C       0.800726   -0.502880    1.223894
C       1.220503   -1.922463    0.787819
H       0.769209    2.117270   -0.134532
H      -0.789024    1.850013   -0.912487
H      -0.691141    1.925738    0.849884
H      -0.943410   -0.425445    0.008416
H       0.142063   -0.692642   -2.077966
H       1.592587    0.169441   -1.556506
H       1.357909   -2.719709   -1.336333
H       3.360636   -2.479977    0.236386
H       2.514231   -0.068157    2.499240
H       2.187100    1.238605    1.338774
H       0.180829   -0.488517    2.124005
H       0.902010   -2.813483    1.313482
