14

N       0.208082    1.301353   -0.379296
C       0.105569   -0.047979   -0.126067
N      -1.022816   -0.675526    0.087571
O      -0.663756   -1.978281    0.379043
N       0.684270   -2.143569    0.324761
C       1.185772   -0.979958    0.024524
C       2.664153   -0.741064   -0.094866
C       3.023068   -0.023159   -1.317219
C       3.292288    0.588332   -2.316551
H       0.963723    1.543510   -1.007027
H      -0.668528    1.734051   -0.635593
H       3.011561   -0.165690    0.774071
H       3.175292   -1.708300   -0.054866
H       3.556561    1.104087   -3.207060
