25

C       0.188212    1.428863    0.324311
C      -0.077472   -0.044466   -0.014961
C      -1.585649   -0.326869   -0.087797
C       0.666812   -0.447284   -1.303121
C       0.631892   -1.950300   -1.593779
O       0.101319    0.319996   -2.368210
C       0.882430    0.417697   -3.516209
C       0.627795   -0.494456   -4.691994
C       0.205765    0.961637   -4.732045
H       1.260734    1.625698    0.432325
H      -0.194431    2.079539   -0.466978
H      -0.299254    1.708555    1.263795
H       0.351156   -0.661931    0.786532
H      -2.037245    0.215410   -0.923184
H      -1.799415   -1.391493   -0.219958
H      -2.078945   -0.004246    0.834573
H       1.721561   -0.145836   -1.182971
H      -0.387310   -2.288210   -1.800316
H       1.251193   -2.195300   -2.460087
H       1.015948   -2.511315   -0.735337
H       1.913647    0.719669   -3.326062
H       1.468292   -0.815080   -5.298557
H      -0.161076   -1.229042   -4.579721
H      -0.853993    1.169619   -4.637461
H       0.750614    1.652134   -5.365744
