13

O      -0.456027    0.751305   -0.547535
C       0.337855    1.008349    0.316514
C       1.506636    1.977542    0.121160
C       1.436005    2.672181   -1.247243
C       2.630253    3.463944   -1.528838
N       3.582633    4.086874   -1.728870
C       1.554154    2.938638    1.312147
O       1.605877    2.554569    2.449447
H       0.287027    0.567213    1.330773
H       2.417239    1.366641    0.200257
H       1.298090    1.921178   -2.029846
H       0.554938    3.321924   -1.294436
H       1.514619    4.018901    1.055512
