16

O       0.122607    1.221957    0.556734
C      -0.150006    0.166216   -0.337984
C      -1.482652   -0.532327   -0.063644
C      -1.483569   -1.940515    0.418220
N      -1.794891   -0.858091    1.352802
C      -2.721322   -0.058506   -0.777602
O      -3.608210   -0.785580   -1.160328
C      -2.949777    1.448770   -0.989204
O      -2.236747    2.330236   -0.579650
H      -0.551742    1.896517    0.393572
H      -0.113033    0.496988   -1.387611
H       0.658680   -0.558913   -0.203500
H      -2.323518   -2.580201    0.168904
H      -0.519328   -2.436873    0.485522
H      -0.982107   -0.588161    1.905984
H      -3.884211    1.647911   -1.550681
