18

O       0.431660   -0.045025   -0.004202
C       0.244247    1.152878    0.005750
N      -0.978805    1.795013    0.027888
C      -0.887579    3.228134    0.034709
C      -1.670592    4.066181   -1.033999
C      -1.969833    5.121969    0.061584
C      -1.638397    4.053797    1.135686
C       0.605053    3.432945    0.013752
C       1.245814    2.263893   -0.002531
H      -1.844713    1.282860    0.037145
H      -1.124074    4.373878   -1.927955
H      -2.575372    3.533617   -1.340343
H      -1.243542    5.938873    0.055469
H      -2.971776    5.553552    0.078909
H      -2.533765    3.517613    1.462661
H      -1.065524    4.351376    2.016469
H       1.041891    4.423934    0.013087
H       2.310259    2.079098   -0.019358
