17

C      -0.007903    1.397505   -0.136516
C       1.330358    2.026667    0.109920
C       2.437979    1.343477    0.384165
C       2.493872   -0.155929    0.483456
C       1.161700   -0.793497    0.239522
C       0.740502   -2.111540    0.228161
C      -0.634406   -2.043661   -0.066390
N      -1.047589   -0.788451   -0.227649
N       0.061882   -0.045703   -0.036964
H      -0.750159    1.767672    0.583296
H      -0.387058    1.667019   -1.131363
H       1.350973    3.110660    0.050972
H       3.371328    1.873654    0.550677
H       3.234476   -0.546133   -0.229599
H       2.875198   -0.446878    1.472956
H       1.344042   -2.986939    0.407269
H      -1.341114   -2.854461   -0.167964
