20

C      -0.061468    1.541647    0.010230
C       0.042113    0.027837   -0.005729
C       1.094433   -0.684741   -0.911422
C       1.092921   -1.801608    0.170394
C       0.702916   -0.707771    1.196451
C      -0.117407   -2.711221   -0.067269
O      -1.192296   -2.000555   -0.667705
C      -1.319661   -0.643935   -0.266006
H       0.904796    1.996866    0.251525
H      -0.383077    1.930349   -0.963003
H      -0.785670    1.883811    0.759617
H       0.798667   -0.952700   -1.928809
H       2.040725   -0.137114   -0.929276
H       1.999589   -2.386078    0.343179
H       1.573878   -0.164127    1.574932
H       0.061808   -0.996421    2.036920
H       0.126465   -3.520107   -0.765365
H      -0.433086   -3.171308    0.884551
H      -1.949161   -0.557503    0.636633
H      -1.846150   -0.143844   -1.087805
