18

C       0.255744    1.532414   -0.146341
C       0.110257    0.011245   -0.069279
C      -1.343297   -0.449374    0.038662
C      -1.454204   -1.987416    0.076365
C      -2.841071   -2.442852    0.038243
N      -3.948021   -2.770752   -0.006468
O      -1.897389    0.075244    1.250485
C      -3.110807    0.677425    1.211679
O      -3.621492    1.140051    2.183351
H       1.308543    1.813926   -0.233315
H      -0.270406    1.939085   -1.017069
H      -0.148734    2.010459    0.749323
H       0.547270   -0.454999   -0.960327
H       0.661813   -0.376737    0.795461
H      -1.919104   -0.068824   -0.816064
H      -0.916433   -2.415921   -0.775988
H      -0.976647   -2.358459    0.989325
H      -3.549802    0.693341    0.196764
