19

C      -0.674286    1.463091   -0.143311
C      -0.341282   -0.012577    0.020883
O       0.706829   -0.387523    0.522138
N      -1.289823   -0.871234   -0.444482
C      -1.139796   -2.305632   -0.312584
C      -2.440830   -3.015931    0.054658
O      -3.256314   -3.392281   -1.080603
C      -4.047221   -2.485251   -1.651105
N      -4.060131   -1.248324   -1.366284
H       0.007596    1.900127   -0.878978
H      -1.702953    1.644931   -0.464745
H      -0.495675    1.970210    0.807739
H      -2.182773   -0.542335   -0.790971
H      -0.738575   -2.763327   -1.228139
H      -0.400428   -2.475316    0.476151
H      -2.212575   -3.975867    0.521881
H      -3.038168   -2.407898    0.740499
H      -4.676734   -2.979396   -2.396802
H      -4.758426   -0.761139   -1.921813
