19

C      -0.041060    1.548619   -0.046017
C      -0.033524    0.015861    0.002367
C       0.736248   -0.511709    1.219595
C      -1.452970   -0.546573    0.000903
O      -2.103740   -0.153479   -1.199689
C      -3.429659   -0.605576   -1.265929
C      -4.030760   -0.162780   -2.528246
N      -4.531437    0.171372   -3.513261
H       0.978302    1.941134   -0.113419
H      -0.606903    1.910088   -0.907569
H      -0.498570    1.964736    0.859968
H       0.453942   -0.357386   -0.907854
H       0.271922   -0.178930    2.155543
H       0.772991   -1.606244    1.233666
H       1.766111   -0.142762    1.214378
H      -1.433237   -1.646796    0.070746
H      -2.015203   -0.170833    0.873764
H      -3.488993   -1.705874   -1.217663
H      -4.036950   -0.213861   -0.432780
