20

C      -0.009322    1.562268    0.097714
C      -0.009283    0.030224    0.014198
C       0.440744   -0.425005   -1.380133
C       0.559996   -1.904044   -1.608075
C       0.489864   -2.924294   -0.747877
N       0.313056   -2.936113    0.639137
C       0.460557   -1.950393    1.595151
O       0.256514   -2.211539    2.765632
C       0.882419   -0.572963    1.123109
H       1.005562    1.960411   -0.020484
H      -0.632903    2.001211   -0.688038
H      -0.392369    1.905593    1.063506
H      -1.038499   -0.316160    0.176316
H      -0.253128   -0.016500   -2.128172
H       1.408913    0.051051   -1.606014
H       0.736535   -2.194068   -2.640330
H       0.579395   -3.932556   -1.140610
H       0.079094   -3.826229    1.055141
H       1.922247   -0.619644    0.772058
H       0.868520    0.051675    2.018418
