22

C       0.007892    1.578397   -0.041469
C      -0.000143    0.039292   -0.016634
C       0.589597   -0.491490   -1.334361
C       0.721108   -0.511815    1.236619
C       0.202645    0.082594    2.548360
C       0.902757   -2.070439    1.302946
N       2.345954   -1.841972    1.212000
C       2.276240   -0.474550    1.144955
O       3.112952    0.386814    1.051257
H       1.033629    1.956656    0.013428
H      -0.440333    1.942829   -0.971162
H      -0.559484    2.009875    0.786840
H      -1.045400   -0.297691    0.049485
H       1.619306   -0.143883   -1.468029
H       0.591132   -1.583654   -1.391215
H       0.002969   -0.122575   -2.181269
H      -0.885099   -0.027011    2.627045
H       0.656427   -0.419448    3.408728
H       0.445622    1.144788    2.623177
H       0.580058   -2.523329    2.246250
H       0.484628   -2.637768    0.466906
H       3.133567   -2.473200    1.213929
