21

C      -0.006525    1.528028    0.030113
C      -0.006614   -0.007898    0.002299
C      -1.442342   -0.558765    0.018798
C       0.733505   -0.501825   -1.258920
O       0.908302   -1.908967   -1.246688
C       1.838386   -2.340122   -0.269769
C       1.639700   -1.692566    1.088878
O       2.151450   -0.358603    1.237631
C       0.733201   -0.542376    1.220385
H       1.014388    1.917794    0.084414
H      -0.482890    1.935165   -0.868665
H      -0.559487    1.904798    0.897366
H      -2.029210   -0.126841   -0.798820
H      -1.440913   -1.645277   -0.101598
H      -1.951830   -0.314129    0.957264
H       0.142711   -0.275020   -2.151868
H       1.704847    0.006981   -1.345605
H       1.707516   -3.423608   -0.184676
H       2.871051   -2.146859   -0.604656
H       1.822792   -2.331884    1.952460
H       0.247292   -0.362384    2.181461
