17

C      -0.017361    1.465228    0.085009
N      -0.012898    0.017150    0.041082
C      -1.149138   -0.765996   -0.091742
N      -2.356803   -0.440933   -0.306926
C      -0.732676   -2.226404    0.049713
O      -1.395055   -3.050690   -0.874153
C       0.785419   -2.191870   -0.156547
C       1.170695   -0.731060    0.041643
O       2.273129   -0.256674    0.155817
H       1.011226    1.789266    0.246469
H      -0.385065    1.885738   -0.857497
H      -0.649665    1.822439    0.903724
H      -2.496155    0.564393   -0.402010
H      -0.961644   -2.532654    1.083969
H      -2.272861   -2.659814   -0.991105
H       1.357471   -2.834855    0.513013
H       1.020898   -2.477664   -1.187120
