15

O       0.003097    1.500605   -0.066215
C       0.019725    0.101881    0.015762
C       0.069378   -0.633047    1.387252
C      -1.001695    0.091059    2.223374
C      -2.130471    0.100759    1.143576
C      -1.345506   -0.612726    0.025810
O      -0.686132   -1.703293    0.742836
H       0.908742    1.817837   -0.129574
H       0.700050   -0.367271   -0.702061
H       0.991032   -0.965744    1.865611
H      -1.265997   -0.480257    3.115159
H      -0.687527    1.095052    2.517258
H      -3.007957   -0.477791    1.438516
H      -2.440550    1.107525    0.856798
H      -1.865939   -0.922462   -0.880023
