21

C      -0.229667    1.484493   -0.128464
C       0.034827   -0.004376    0.076762
O      -1.177816   -0.729262    0.150181
C       1.138226   -0.577305   -0.866638
C       2.157011   -0.431346    0.302902
C       0.955934   -0.318150    1.280507
C       3.149775   -1.545110    0.496821
C       3.487454   -2.098160    1.814337
O       2.633761   -2.811621    0.915998
H       0.700089    2.062353   -0.137095
H      -0.733298    1.659997   -1.087752
H      -0.869172    1.869559    0.671923
H      -1.720316   -0.487717   -0.608601
H       0.935827   -1.630749   -1.075504
H       1.344988   -0.045650   -1.799607
H       2.706792    0.513406    0.228022
H       1.007244    0.420671    2.083980
H       0.700426   -1.298604    1.688899
H       3.906634   -1.624148   -0.287074
H       4.466342   -2.544724    1.983430
H       2.997571   -1.702519    2.702851
