19

C       0.025373    1.494738    0.120628
C      -0.082705   -0.013209   -0.074935
C       0.628649   -0.488855   -1.347694
C       0.306129   -1.920604   -1.690635
C       0.655456   -2.921452   -0.888790
C       1.451813   -2.704625    0.374553
C       0.818969   -1.832731    1.458017
O       0.782110   -2.189800    2.604842
O       0.402866   -0.575347    1.169260
H       1.074528    1.804338    0.159547
H      -0.463700    2.021151   -0.704214
H      -0.453676    1.787753    1.057407
H      -1.140725   -0.297224   -0.146935
H       0.317506    0.175998   -2.159139
H       1.711573   -0.343136   -1.225250
H      -0.252525   -2.116781   -2.600990
H       0.391058   -3.945360   -1.134243
H       1.681012   -3.649547    0.866592
H       2.414071   -2.232411    0.124774
