21

C      -0.122280    1.586612   -0.151151
C      -0.058450    0.083700    0.010382
C       1.127648   -0.662593   -0.635013
O       1.433740   -1.380251    0.575291
C       0.372547   -0.723032    1.309537
C       0.858688   -0.171158    2.624926
C      -0.921520   -1.525271    1.221688
C      -2.109899   -0.604731    1.245601
C      -1.337684   -0.750801   -0.035862
H       0.823674    2.060155    0.133757
H      -0.321698    1.853526   -1.196543
H      -0.918155    2.027843    0.456820
H       0.885105   -1.330477   -1.471645
H       1.960924   -0.011074   -0.931760
H       1.672046    0.545090    2.474096
H       0.050495    0.322915    3.172161
H       1.242726   -0.987872    3.246788
H      -0.996918   -2.587513    1.421507
H      -3.075201   -1.100145    1.264103
H      -2.086106    0.325267    1.809051
H      -1.797646   -1.133684   -0.940485
