19

O      -0.211069    0.610097    1.103433
C      -0.128371    1.339026    0.153486
C      -1.277283    1.679144   -0.781813
C      -1.347663    3.178119   -1.093132
C      -1.490518    4.130337    0.132488
C      -0.086455    4.732180   -0.163949
C       0.059424    3.787089   -1.393437
C       1.161279    2.744697   -1.316397
O       1.060165    1.937259   -0.129351
H      -1.130961    1.117423   -1.714598
H      -2.194554    1.308078   -0.319833
H      -2.090356    3.354225   -1.874650
H      -2.317552    4.839194    0.055199
H      -1.572814    3.616376    1.094023
H      -0.086861    5.795120   -0.413615
H       0.654706    4.562325    0.620360
H       0.134840    4.306286   -2.352907
H       1.143052    2.092076   -2.199918
H       2.151949    3.203730   -1.259171
