20

O       0.053322    1.451829    0.144188
C      -0.001177    0.063484   -0.030493
C       0.464340   -0.848423    1.142782
C      -0.831584   -1.698317    1.000896
C      -1.800303   -1.779926    2.203315
C      -2.734428   -0.590108    2.056049
N      -2.053124    0.723198    1.996785
C      -2.514756    0.068452    0.740102
C      -1.404550   -0.642378   -0.009311
H      -0.413974    1.619586    0.974590
H       0.535174   -0.151274   -0.959416
H       1.409975   -1.377417    0.997578
H       0.508199   -0.298213    2.085754
H      -0.642968   -2.682433    0.568077
H      -2.396074   -2.699269    2.162959
H      -1.270808   -1.775575    3.162330
H      -3.716225   -0.621664    2.518593
H      -2.716002    1.450145    2.254453
H      -3.324029    0.541006    0.194003
H      -1.766961   -1.007785   -0.973438
