18

O      -0.906302    1.177301    0.072513
C       0.225028    0.780215   -0.020133
C       1.436556    1.705852   -0.033955
O       2.579640    0.889221   -0.154753
C       3.777888    1.640496   -0.275056
C       3.853375    2.379619   -1.615519
C       2.538643    3.082678   -1.927575
N       1.483980    2.229564   -2.508154
C       1.321050    2.740641   -1.142518
H       0.482352   -0.297336   -0.104207
H       1.451567    2.246647    0.931169
H       3.847592    2.359796    0.558141
H       4.598321    0.925624   -0.171060
H       4.672376    3.106157   -1.576795
H       4.075250    1.671031   -2.419406
H       2.613123    4.100541   -2.302277
H       0.904804    2.764568   -3.149304
H       0.574705    3.507633   -0.955801
