17

O       0.144413   -0.067733   -0.253630
C       0.126380    1.105353    0.028935
C       1.313317    1.981433    0.080609
C       1.132627    3.488030   -0.163787
C       1.456605    3.024774    1.197178
C       0.538664    3.091144    2.430087
O       1.424292    3.444650    3.484404
C       2.695608    3.020930    3.063496
O       2.752813    3.269455    1.672717
H      -0.834730    1.619009    0.275933
H       2.241012    1.530555   -0.252983
H       1.912644    3.984874   -0.728552
H       0.123246    3.837146   -0.361636
H      -0.230081    3.864660    2.352537
H       0.056540    2.125117    2.631707
H       3.461197    3.617919    3.563840
H       2.844156    1.945533    3.267266
