15

O      -0.011759    0.061264    0.005063
C      -0.011383    1.259080    0.011215
C      -1.294915    2.129935    0.032773
N      -0.753638    3.467648    0.032048
C      -1.231650    4.757390    0.044199
C      -0.104959    5.544203    0.032973
N       1.044028    4.779183    0.013789
C       0.611740    3.541859    0.014055
C       1.223736    2.181007   -0.000535
H      -1.910545    1.915402   -0.848047
H      -1.886578    1.906667    0.927742
H      -2.283381    4.988056    0.059336
H      -0.056751    6.622537    0.037403
H       1.853662    1.967387    0.870251
H       1.830780    1.975882   -0.889405
