19

C      -0.354669    1.510148    0.063366
C       0.006801    0.031346   -0.010404
O      -1.129769   -0.763896   -0.298907
C       1.278431   -0.290004   -0.882253
C       2.000358   -0.716068    0.411386
O       3.123685   -1.045917    0.676580
C       0.754161   -0.528814    1.216919
C       0.647236   -0.174116    2.681627
C       0.221935   -1.528929    2.222253
H       0.513374    2.118994    0.332976
H      -0.723453    1.868241   -0.905972
H      -1.138673    1.676748    0.808613
H      -1.583578   -0.375777   -1.054756
H       1.110817   -1.130051   -1.562267
H       1.736603    0.538424   -1.429570
H       1.584730   -0.078142    3.219487
H      -0.119718    0.541010    2.960545
H      -0.837666   -1.744274    2.147501
H       0.859129   -2.377923    2.444953
