18

C      -0.110685    1.327158   -0.282346
C      -0.015805   -0.148241    0.017157
N       1.333736   -0.755049   -0.042549
C       0.649674   -0.672962    1.230469
C       1.169978    0.009515    2.490857
O       0.645358   -1.069228    3.307320
C       0.212240   -1.819596    2.161835
C      -1.271747   -2.112400    2.166215
O      -1.811202   -2.779755    1.319919
H       0.752506    1.861352    0.124137
H      -0.134954    1.501475   -1.362811
H      -1.021666    1.754885    0.149799
H      -0.837890   -0.756384   -0.357128
H       1.295696   -1.700966   -0.415666
H       2.262048    0.079569    2.552348
H       0.720690    0.974407    2.753032
H       0.775513   -2.753693    2.024300
H      -1.828652   -1.624521    2.996893
