18

O       0.046755    0.049070    0.415619
C       0.010240    1.220961    0.126821
C      -1.263970    2.075556   -0.041659
N      -0.793258    3.471858   -0.023975
C       0.556427    3.470133   -0.610276
C       1.586521    4.499057   -0.099018
C       2.903815    3.672826    0.028152
C       2.400626    2.260549    0.246845
C       1.119224    2.164998   -0.112728
H      -1.736446    1.769134   -0.992938
H      -1.979109    1.869739    0.760562
H      -1.429088    4.084739   -0.520809
H       0.528827    3.478035   -1.717306
H       1.695721    5.376383   -0.741789
H       1.266074    4.834940    0.892088
H       3.508759    3.733086   -0.888460
H       3.549542    4.018318    0.842305
H       2.997324    1.464454    0.677256
