19

O      -0.276451    1.131018    1.302726
C       0.003773    0.174332    0.295950
C       0.949320   -0.914062    0.834400
C       0.042458   -2.025076    1.357148
O       0.562690   -3.320416    1.402338
C      -1.074887   -1.633978    2.283845
C      -1.337695   -1.812521    0.793829
C      -1.302499   -0.591850   -0.095364
O      -2.458456    0.232628    0.087502
H      -1.219118    1.333880    1.201646
H       0.438319    0.680788   -0.579229
H       1.558096   -1.327488    0.022608
H       1.625734   -0.497601    1.588005
H       1.081832   -3.402133    2.209619
H      -1.467948   -2.428054    2.909653
H      -1.083563   -0.641720    2.716068
H      -1.939801   -2.660372    0.490188
H      -1.241080   -0.914041   -1.143370
H      -2.577705    0.764136   -0.706528
