17

C      -0.040886    1.387051    0.038921
N      -0.009956   -0.040947   -0.187386
C       0.514410   -0.602880   -1.296590
O       1.020116   -0.011561   -2.234858
C       0.416653   -2.145068   -1.227819
O       0.005322   -2.712250   -0.232670
N       0.749978   -2.775689   -2.392095
C       1.971377   -2.703566   -3.154087
C       1.506278   -3.994557   -2.533230
H       0.389597    1.870603   -0.839379
H      -1.067402    1.743163    0.177517
H       0.545883    1.663029    0.922285
H      -0.364043   -0.691778    0.499578
H       1.853377   -2.541912   -4.221123
H       2.814008   -2.189947   -2.702474
H       2.020451   -4.359321   -1.647883
H       1.059637   -4.761379   -3.159274
