15

O       0.163082    1.372375   -0.333869
C       0.016507   -0.020588   -0.216017
C      -1.439686   -0.477628   -0.021212
O      -2.252992   -0.543877   -1.216705
C      -2.452821   -1.971909   -1.146395
C      -1.595674   -2.021078    0.116876
O      -1.174432   -2.850298    0.857584
C      -2.155928    0.317151    1.056761
O      -1.586809    0.923232    1.929530
H      -0.025084    1.746563    0.535105
H       0.392583   -0.462244   -1.143185
H       0.596498   -0.433998    0.622123
H      -3.504282   -2.251125   -1.001603
H      -2.049382   -2.508285   -2.013937
H      -3.261862    0.304292    0.964227
