17

O       0.084628    1.387184   -0.028832
C      -0.040971   -0.002892   -0.066654
C       0.618851   -0.720067   -1.235865
C      -0.089247   -1.798337   -1.610816
C      -1.062244   -1.983410   -0.483278
C      -0.786640   -2.832023    0.523988
C      -0.572670   -2.064056    1.824006
C      -0.609709   -0.614040    1.324290
C      -1.392128   -0.592117    0.055730
H       0.940035    1.600793    0.358425
H       1.515560   -0.340769   -1.712341
H       0.160119   -2.510642   -2.385707
H      -0.337644   -3.809100    0.375333
H      -1.315329   -2.220330    2.622757
H       0.395990   -2.367331    2.244262
H      -0.732437    0.189095    2.046001
H      -2.324392   -0.075805   -0.154118
