16

O       0.268593    1.200777   -0.379355
C       0.050289   -0.118616    0.070984
C       0.406136   -0.159302    1.577318
O      -0.507039   -1.044043    2.216756
C      -1.675635   -1.096338    1.461405
C      -2.336711    0.164574    1.005138
C      -1.409613   -0.591347    0.048648
C      -1.919611   -1.222891   -1.127068
N      -2.316895   -1.724251   -2.092368
H       0.149271    1.222045   -1.334652
H       0.655471   -0.834640   -0.499706
H       1.416592   -0.524235    1.770858
H       0.321532    0.861719    1.970776
H      -2.260240   -1.986610    1.657971
H      -3.397502    0.114297    0.789652
H      -1.983497    1.125628    1.360560
