19

C       0.017394   -1.120038   -0.475754
C       0.005947    0.049121   -0.190584
C      -0.006479    1.455444    0.149944
C      -0.411692    2.399151   -1.041742
C       1.060775    2.861934   -1.194647
C       1.399744    2.187202    0.165547
C       1.295258    3.071666    1.375464
C       0.181499    2.868371    2.079232
C      -0.690466    1.776679    1.506476
H       0.026521   -2.151728   -0.725772
H      -0.856960    1.898117   -1.902278
H      -1.081990    3.195626   -0.709790
H       1.567588    2.376493   -2.032422
H       1.232695    3.939149   -1.258021
H       2.294318    1.557793    0.171288
H       2.063430    3.797237    1.623447
H      -0.086619    3.401679    2.985199
H      -1.731342    2.092379    1.361791
H      -0.719903    0.898863    2.164033
