21

C       0.306750    1.451057    0.036428
C      -0.001560   -0.053378    0.036408
C      -1.503081   -0.306467   -0.008141
O       0.573699   -0.696529   -1.110464
C       1.950541   -0.943378   -0.859191
C       2.118089   -1.099641    0.662472
O       3.065675   -0.139227    1.133304
C       0.693651   -0.793117    1.213366
O       0.716375   -0.106305    2.441965
H       1.382559    1.645365    0.073441
H      -0.092960    1.906759   -0.873736
H      -0.155730    1.936653    0.900358
H      -1.959993    0.201432   -0.862672
H      -1.704527   -1.377744   -0.098604
H      -1.973347    0.063366    0.907991
H       2.231567   -1.840764   -1.417230
H       2.587173   -0.113382   -1.196514
H       2.445908   -2.106797    0.940179
H       3.385224   -0.439763    1.990088
H       0.161319   -1.732777    1.391722
H       1.401772    0.568574    2.350466
