20

C      -0.115666    1.592687   -0.192957
C       0.002283    0.082125   -0.075811
C       0.686898   -0.681479   -1.217728
N       2.085519   -0.181998   -1.272815
C       1.724286   -1.251209   -0.316073
C       2.428528   -2.571050   -0.285439
C       1.100094   -0.533034    0.905661
C       1.940507    0.349505    1.688317
C       2.631281    1.078357    2.350455
H       0.843888    2.028993   -0.477914
H      -0.860237    1.861629   -0.950544
H      -0.425885    2.036764    0.758103
H      -0.967032   -0.366028    0.161465
H       0.219984   -1.112332   -2.096123
H       2.535717   -0.635396   -2.067847
H       2.570097   -2.964585   -1.298166
H       3.416314   -2.477893    0.180638
H       1.857881   -3.311058    0.286075
H       0.622820   -1.267536    1.562889
H       3.248682    1.723958    2.924063
