13

N      -0.031500    1.403082    0.129403
C      -0.046060    0.015456    0.041778
C      -1.200381   -0.713830    0.004987
N      -2.460325   -0.171850    0.001026
C      -1.102211   -2.162570   -0.077346
O      -2.058496   -2.901713   -0.126398
O       0.164602   -2.668655   -0.080920
N       1.345475   -1.833644    0.005923
N       1.179208   -0.607087    0.049511
H       0.900919    1.782859    0.029979
H      -0.686066    1.857995   -0.495866
H      -2.585499    0.675759    0.536796
H      -3.185249   -0.866844    0.127870
