18

O      -0.707109    1.004558   -1.397839
C      -0.083278    1.668523   -0.605079
C       1.340625    2.140760   -0.892927
N       2.171723    2.087889    0.301534
C       2.933878    0.857098    0.506504
C       3.614771    2.113680    0.089135
C      -0.676160    2.092664    0.716422
O      -2.099079    2.219586    0.734512
C      -1.535667    1.131739    1.440690
H       1.727672    1.551914   -1.739166
H       1.276235    3.189060   -1.219237
H       2.999985    0.508836    1.532840
H       2.838780    0.070321   -0.239713
H       3.977328    2.165928   -0.935931
H       4.185315    2.697464    0.805452
H      -0.128071    2.839635    1.283457
H      -1.703084    0.153435    0.993938
H      -1.585424    1.187241    2.527257
