19

C       0.050475    1.481802   -0.092229
C       1.561534    1.858192    0.006958
C       2.136443    0.659916    0.707017
C       1.286818   -0.373239    0.737528
C      -0.034508   -0.065619    0.092019
C       1.953862   -1.584434    1.286895
O       3.089401   -2.009773    0.489705
C       3.333966   -1.166360    1.615245
C       3.492267    0.321854    1.280147
H      -0.493574    1.970134    0.722028
H      -0.403862    1.817410   -1.027662
H       2.016238    1.989113   -0.985606
H       1.720207    2.801634    0.542586
H      -0.902788   -0.361851    0.691827
H      -0.132894   -0.587558   -0.870155
H       1.427398   -2.386598    1.795467
H       3.918883   -1.616712    2.413333
H       4.308484    0.484529    0.565316
H       3.732739    0.907856    2.177021
