18

O       0.073020    1.426270   -0.087851
C      -0.009468    0.018034    0.071680
C      -1.454893   -0.497539   -0.060454
C      -2.048115   -0.047112   -1.408103
O      -3.287523   -0.650808   -1.730947
C      -1.501671   -2.042172    0.081311
O      -0.628702   -2.549259    1.081917
C      -2.874845   -2.510746    0.351231
N      -3.925047   -2.867573    0.676929
H      -0.282096    1.839215    0.705658
H       0.606652   -0.410442   -0.727487
H       0.425327   -0.309777    1.022026
H      -2.050021   -0.064078    0.758836
H      -2.100869    1.047892   -1.425578
H      -1.363516   -0.346559   -2.211015
H      -3.947818   -0.385649   -1.082013
H      -1.157885   -2.491993   -0.856852
H      -1.009651   -2.355726    1.946226
