27

C      -0.697013    0.816277   -1.732548
C      -1.025347    0.581890   -0.247733
C      -1.594899    1.874770    0.358234
C      -2.020427   -0.591100   -0.001279
O      -3.063982   -0.585213   -0.975734
C      -1.415251   -2.017677    0.202844
C      -0.515690   -2.026621    1.453785
C      -2.585428   -2.993728    0.441676
C      -0.600412   -2.503826   -1.010115
H       0.051031    1.609358   -1.829424
H      -0.295592   -0.070468   -2.230008
H      -1.587155    1.143297   -2.280316
H      -0.089104    0.350722    0.272593
H      -1.720272    1.786444    1.442399
H      -0.937716    2.729161    0.164994
H      -2.575742    2.097119   -0.076160
H      -2.548517   -0.368585    0.934589
H      -2.667920   -0.755946   -1.836193
H      -1.054037   -1.652540    2.331944
H      -0.190139   -3.048163    1.677900
H       0.385714   -1.419677    1.327644
H      -3.266353   -3.011118   -0.411491
H      -2.210108   -4.008487    0.611998
H      -3.167166   -2.699479    1.322308
H       0.306638   -1.911376   -1.161235
H      -0.289730   -3.543849   -0.863166
H      -1.186286   -2.476561   -1.936366
