21

C       0.036184    1.436784   -0.305853
C       0.070359   -0.017492    0.187229
C       0.665311   -0.126542    1.597911
C      -1.323646   -0.614534    0.137799
C      -1.900306   -1.153987   -1.138687
O      -1.126852   -1.155597   -2.295826
C      -1.557375   -2.126514   -0.009062
C      -0.469169   -3.026924   -0.235701
C       0.430621   -3.782258   -0.505192
H       1.037777    1.878836   -0.284520
H      -0.339648    1.489311   -1.331319
H      -0.611757    2.054080    0.328148
H       0.704613   -0.588911   -0.497979
H       0.721199   -1.169220    1.924611
H       1.676487    0.292624    1.628048
H       0.056897    0.424067    2.325531
H      -2.038572   -0.133678    0.803184
H      -2.958145   -0.996245   -1.337822
H      -0.661963   -2.001059   -2.348314
H      -2.392589   -2.545790    0.543613
H       1.232119   -4.452405   -0.695862
