21

O      -0.048102    1.504495    0.348792
C       0.011438    0.121819    0.136393
C      -0.561372   -0.817365    1.169189
C      -1.287664   -0.577330   -0.143320
C      -2.590161    0.187444   -0.173570
C      -2.906107    0.855150   -1.542278
C      -4.412296    0.786773   -1.619862
C      -4.922233   -0.036362   -0.704998
C      -3.848302   -0.668051    0.148810
H       0.575253    1.724263    1.048599
H       0.890238   -0.211756   -0.415792
H      -0.074317   -1.770798    1.343590
H      -0.992046   -0.358097    2.053596
H      -1.229723   -1.385288   -0.870068
H      -2.531913    0.989470    0.567941
H      -2.506153    1.872945   -1.599274
H      -2.450302    0.299659   -2.376259
H      -4.985830    1.324030   -2.367732
H      -5.974627   -0.274304   -0.592603
H      -3.702432   -1.722725   -0.130808
H      -4.086504   -0.668011    1.218638
