16

C      -0.037097   -1.188727    0.234444
C      -0.003392    0.005585    0.116517
C       0.050753    1.452430   -0.029822
C       1.485241    2.005376   -0.117073
C       1.630127    3.549722    0.003736
C       2.486204    3.225901    1.242946
O       2.219790    1.807878    1.106186
C       2.204755    1.437345   -1.270998
N       2.774432    1.032382   -2.190995
H      -0.063798   -2.245620    0.335467
H      -0.494961    1.767310   -0.928765
H      -0.428458    1.939337    0.827376
H       2.138390    4.042233   -0.823813
H       0.685199    4.054914    0.209454
H       3.553975    3.446068    1.140409
H       2.125776    3.611622    2.201393
