23

C       2.818856    0.533834    0.911469
C       1.582219   -0.288834    0.522360
C       1.562804   -0.707551   -0.938873
C       1.350490    0.396305   -1.909039
O       1.153030    1.553363   -1.624382
C       2.406794   -1.873447   -1.480352
C       3.375169   -2.637153   -0.601310
C       0.921256   -2.031687   -1.403119
C       0.216110   -2.965501   -0.442553
H       3.742546   -0.033093    0.758363
H       2.874751    1.448263    0.317202
H       2.773424    0.818557    1.967344
H       1.507117   -1.167228    1.168598
H       0.683762    0.309967    0.709900
H       1.370314    0.069349   -2.977405
H       2.792132   -1.710558   -2.485563
H       3.029529   -2.729260    0.430099
H       3.525191   -3.649680   -0.992419
H       4.351917   -2.144046   -0.579317
H       0.407815   -1.954706   -2.359888
H       0.759627   -3.108232    0.493168
H      -0.782444   -2.591424   -0.193871
H       0.094879   -3.952074   -0.903158
