18

C      -0.040771    1.535131   -0.006943
C      -0.007356    0.028798    0.007194
C      -0.115981   -0.714489   -1.168577
N      -0.092639   -2.047990   -1.215444
C       0.042055   -2.732842   -0.079425
C       0.065298   -4.238553   -0.161238
C       0.158861   -2.075064    1.157880
O       0.297626   -2.745846    2.336374
C       0.133428   -0.687614    1.195187
H       0.880549    1.959692    0.407185
H      -0.157037    1.916419   -1.024862
H      -0.871465    1.922538    0.593435
H      -0.227740   -0.205003   -2.123318
H       1.005160   -4.658531    0.222365
H      -0.756900   -4.695647    0.406140
H      -0.037237   -4.537905   -1.204825
H       0.299172   -3.692709    2.163877
H       0.224102   -0.185990    2.153622
