15

C      -0.066247    1.507691    0.015486
C      -0.023191    0.008635   -0.026809
N      -0.025117   -0.593072   -1.159005
C      -0.001816   -1.983444   -1.185487
N       0.078522   -2.610884   -2.282592
O      -0.098200   -2.683915    0.011442
N      -0.012310   -2.047922    1.250104
C       0.008527   -0.758865    1.229802
N      -0.030694   -0.087653    2.441566
H       0.853069    1.914885    0.456123
H      -0.166154    1.894008   -0.998611
H      -0.901840    1.853408    0.632912
H       0.094775   -3.616639   -2.109193
H       0.090829   -0.705365    3.234410
H       0.552383    0.734867    2.501949
