17

N      -0.054545    1.347819   -0.177061
C       0.048303   -0.007316    0.121969
O       1.034365   -0.493056    0.644789
N      -1.053224   -0.741913   -0.250292
C      -1.051781   -2.184472   -0.169300
C      -2.488944   -2.676886    0.068170
O      -3.366416   -2.158066   -0.937854
C      -2.546620   -4.135589    0.142415
C      -2.573178   -5.337166    0.155015
H       0.642088    1.896731    0.303781
H      -0.976148    1.759236   -0.165586
H      -1.733807   -0.342009   -0.877205
H      -0.663174   -2.653987   -1.086042
H      -0.395249   -2.479219    0.651367
H      -2.850786   -2.240543    1.006233
H      -3.271409   -2.716324   -1.718190
H      -2.606432   -6.398551    0.186147
