21

C       0.584669    1.484397    0.107829
C      -0.073266    0.114990   -0.023457
O      -1.473110    0.252809   -0.208634
C       0.627590   -0.866871   -1.014767
C       1.127865   -1.737494    0.194741
C       2.627105   -1.576510    0.489922
C       0.205188   -0.877961    1.132354
C       0.777427   -3.146665    0.118755
C       0.490847   -4.313485    0.056987
H       1.658026    1.405938    0.303464
H       0.462797    2.060903   -0.818427
H       0.123677    2.046726    0.925923
H      -1.619494    0.853355   -0.948007
H      -0.103853   -1.392938   -1.629352
H       1.415426   -0.454501   -1.651755
H       2.904252   -0.519426    0.547916
H       2.885373   -2.049275    1.442340
H       3.227776   -2.044459   -0.295890
H       0.687286   -0.471407    2.025179
H      -0.706647   -1.402947    1.417401
H       0.231236   -5.341430    0.001645
