13

O      -0.057354    1.268681    0.010538
C       0.037752   -0.061242    0.002392
N       1.149392   -0.747193   -0.008132
N       0.682837   -2.051182   -0.012597
C       1.163924   -3.345270   -0.022911
C       0.019704   -4.114847   -0.020323
N      -1.143753   -3.355742   -0.008920
C      -0.672151   -2.135934   -0.004862
N      -1.103718   -0.817175    0.004840
H       0.842520    1.621267    0.006782
H       2.213205   -3.578910   -0.030598
H      -0.033390   -5.192715   -0.026084
H      -2.048619   -0.477366    0.013895
