15

O       0.288668    0.665768    0.912509
C      -0.111323    0.101345   -0.330205
C      -1.476187   -0.397386   -0.225650
C      -2.604214   -0.812459   -0.167916
C      -3.968917   -1.314280   -0.059285
N      -4.034096   -2.623103    0.582846
C      -4.714118   -3.664630    0.034071
O      -5.372052   -3.609486   -0.983190
H       1.186958    0.994122    0.802495
H      -0.066871    0.845916   -1.141644
H       0.551908   -0.728371   -0.624492
H      -4.587046   -0.588776    0.486824
H      -4.425473   -1.440601   -1.046363
H      -3.473475   -2.780622    1.404937
H      -4.603801   -4.587806    0.635899
