23

C      -0.230859    1.480927   -0.029238
C       0.029505   -0.007004    0.081990
C       1.419478   -0.575694   -0.062421
C       0.712568   -0.651738    1.269607
C       1.208617    0.138347    2.449851
O       2.250939   -0.601060    3.074055
C       2.759174    0.021271    4.209400
C       2.059059   -0.166109    5.533229
C       3.370575   -0.870103    5.239372
H       0.603418    2.075444    0.353661
H      -0.377533    1.766235   -1.076924
H      -1.130913    1.775544    0.522373
H      -0.763525   -0.612636   -0.350076
H       1.564461   -1.487965   -0.630326
H       2.239799    0.131430   -0.143567
H       0.334971   -1.630734    1.552334
H       1.586620    1.124198    2.137444
H       0.396122    0.317424    3.172159
H       3.228620    0.988567    4.020102
H       2.050580    0.653167    6.243854
H       1.163914   -0.778071    5.530840
H       3.324229   -1.934457    5.039723
H       4.270427   -0.538720    5.745011
