14

C      -0.027708    1.342288    0.036190
O       0.012404   -0.090794   -0.014988
C       0.616583   -0.620101   -1.073839
N       1.155454    0.094079   -2.034293
O       1.673286   -0.857235   -2.935050
C       1.423815   -2.078012   -2.478473
C       0.750672   -2.033050   -1.291453
C       0.290483   -3.147286   -0.464557
O       0.459514   -4.313096   -0.746632
H       0.985792    1.753004    0.048698
H      -0.563653    1.741003   -0.829728
H      -0.552523    1.589345    0.958541
H       1.771366   -2.903590   -3.080566
H      -0.237197   -2.845154    0.462994
