16

C      -0.112915    1.637229   -0.001417
C      -0.045642    0.117886   -0.001040
C       1.143535   -0.576491   -0.707385
C       2.093681   -0.377398    0.518835
O       2.487407   -1.783106    0.600542
C       1.075910   -1.814519    0.253729
C       0.395515   -3.068580    0.073382
N      -0.180747   -4.059145   -0.078603
C       0.684772   -0.596357    1.161537
H       0.854954    2.088674    0.241157
H      -0.420155    2.014320   -0.982387
H      -0.841546    1.996094    0.732889
H      -1.019364   -0.320106   -0.244714
H       1.427545   -0.607395   -1.758822
H       2.850369    0.377996    0.712607
H       0.449856   -0.649735    2.224129
