20

C      -0.119456    1.531178   -0.140003
C       0.086311    0.024616   -0.201310
C       1.358240   -0.542029   -0.937477
C       1.749926   -1.245571    0.362909
N       1.917182   -0.169047    1.374110
C       0.560241   -0.704389    1.076885
C      -0.316295   -1.286976    2.150826
C      -0.908693   -0.214500    3.050708
O      -2.081834   -0.097733    3.291413
H       0.759893    2.018820    0.288913
H      -0.288169    1.943488   -1.140627
H      -0.990618    1.788193    0.473379
H      -0.810500   -0.470610   -0.587934
H       1.107311   -1.225307   -1.751374
H       2.079665    0.200241   -1.288584
H       2.258252   -2.194913    0.485940
H       2.235235   -0.618104    2.233766
H      -1.138859   -1.871979    1.727194
H       0.284645   -1.954854    2.786381
H      -0.158133    0.483675    3.486019
