14

N      -0.052302    1.374075    0.130915
C       0.001479    0.008341    0.032107
N      -1.055239   -0.743841    0.018021
C      -0.634113   -2.152547   -0.008676
C       0.861353   -2.062227   -0.027782
C       1.252112   -0.761164    0.001601
C       2.667183   -0.849405   -0.002524
N       3.071197   -2.101232   -0.036438
O       1.892239   -2.892863   -0.050672
H       0.711144    1.893441   -0.271979
H      -0.965471    1.769053   -0.041819
H      -1.011065   -2.689841    0.870505
H      -1.041611   -2.659902   -0.891573
H       3.423071   -0.076737    0.017786
