22

C      -0.457014    1.386144   -0.023091
N      -0.028272   -0.001725   -0.012650
C      -0.111843   -0.757297    1.225246
C      -1.545506   -1.119748    1.647665
C      -1.574035   -1.924063    2.929159
C      -1.534089   -1.229661    4.269918
C      -2.794524   -1.921223    3.812655
C       0.465091   -0.561325   -1.154321
O       0.566688   -0.008380   -2.229777
H       0.062920    1.953158    0.758450
H      -0.211915    1.800525   -1.001128
H      -1.536464    1.479107    0.141836
H       0.469788   -1.676823    1.094446
H       0.373778   -0.187936    2.029291
H      -2.134369   -0.204375    1.783023
H      -2.021997   -1.680274    0.833202
H      -1.036882   -2.868529    2.874698
H      -0.959299   -1.679472    5.071722
H      -1.529312   -0.144139    4.277979
H      -3.633265   -1.300652    3.514225
H      -3.080698   -2.846662    4.299712
H       0.778077   -1.611546   -0.988942
