21

C      -0.423279    1.170485    0.483501
C      -0.228291   -0.251949    0.241397
C      -0.080114   -1.430952    0.037319
C       0.155368   -2.847336   -0.224245
O       0.969978   -3.025855   -1.373880
C       0.574665   -3.663496    1.049864
C      -0.865982   -4.247588    1.138394
C      -1.745001   -3.622094    2.217873
C      -1.129375   -3.723728   -0.303766
H       0.124758    1.506139    1.370817
H      -0.075753    1.767188   -0.367110
H      -1.482384    1.404143    0.638564
H       1.663002   -2.357228   -1.348948
H       1.318680   -4.412029    0.767271
H       0.935856   -3.090785    1.907421
H      -0.898761   -5.336824    1.226923
H      -1.730603   -2.528879    2.155667
H      -2.785618   -3.949926    2.116355
H      -1.400376   -3.905372    3.218693
H      -2.069114   -3.198587   -0.486705
H      -0.987339   -4.492215   -1.066914
