19

C      -0.545873    1.525373    0.305482
C      -0.115193    0.099706    0.065729
C      -0.882836   -1.046063    0.627724
N       0.416696   -0.671461    1.211081
C       1.542240   -1.474919    0.730495
C       1.462635   -1.512247   -0.832286
C       0.726182   -0.190460   -1.173492
C       2.763379   -1.647821   -1.472370
N       3.803903   -1.749998   -1.966099
H       0.318356    2.198585    0.316445
H      -1.227322    1.864229   -0.482682
H      -1.059528    1.616787    1.265526
H      -1.733668   -0.851063    1.274310
H      -0.964466   -1.969384    0.058318
H       2.468763   -0.984394    1.043381
H       1.526241   -2.477695    1.166030
H       0.855750   -2.365423   -1.149757
H       0.136115   -0.274430   -2.090060
H       1.449719    0.618202   -1.319959
