15

C       0.124697    1.576860    0.096910
C       0.080091    0.067339   -0.033378
C       0.771444   -0.680164   -1.180118
C       1.182910   -1.729911   -0.224334
C       2.265636   -0.802866   -0.766606
C       2.310303   -0.221753    0.602372
O       3.104505    0.320793    1.302316
N       0.949822   -0.747449    0.934914
H       1.130532    1.976776   -0.057428
H      -0.542023    2.034286   -0.641180
H      -0.211678    1.879453    1.093415
H      -0.945052   -0.297703    0.080404
H       0.491207   -0.781600   -2.222637
H       1.145240   -2.805734   -0.155985
H       3.050244   -1.000213   -1.484154
