18

C      -0.027748    1.440481    0.033729
N      -0.024770   -0.007046    0.048725
C       0.532911   -0.624900   -0.926047
N       1.151580    0.002906   -2.025958
C       1.736408   -0.682121   -3.048299
N       1.791042   -1.966848   -3.126695
C       1.201596   -2.650947   -2.077042
C       0.590971   -2.079338   -1.007991
C      -0.032858   -2.865784    0.102984
H       0.987942    1.874344    0.039386
H      -0.558332    1.862111   -0.838403
H      -0.537349    1.811762    0.926228
H       1.158090    1.011017   -2.051554
H       2.174922   -0.066458   -3.830706
H       1.254478   -3.733460   -2.154900
H       0.076237   -3.939945   -0.066810
H       0.422569   -2.605668    1.064258
H      -1.096546   -2.623601    0.198797
