16

C      -0.151283    1.382013    0.410754
C      -0.256997   -0.130179    0.462240
O       0.247927   -0.791891    1.332362
C      -1.064754   -0.762942   -0.690365
C      -1.156519   -2.208744   -0.626525
C      -1.218667   -3.408644   -0.552019
C      -1.303599   -4.860826   -0.476834
N      -0.649801   -5.379273    0.602286
O      -1.897804   -5.536062   -1.295088
H       0.433155    1.738659    1.259027
H       0.323119    1.700905   -0.524178
H      -1.148254    1.836343    0.432613
H      -2.066765   -0.311305   -0.691964
H      -0.609820   -0.445604   -1.639227
H      -0.168957   -4.788065    1.257873
H      -0.655966   -6.377210    0.734101
