13

O      -0.020989   -0.051377   -0.193154
C      -0.009868    1.128967    0.056874
C       1.266338    1.932964    0.043353
C       1.219163    3.347100   -0.627221
N       0.380978    3.791652    0.568214
C       1.485347    2.955429    1.208801
C       2.449297    3.702840    0.249406
O       3.445872    4.348916    0.242748
H      -0.931752    1.683143    0.308603
H       2.112764    1.295642   -0.215309
H       0.951839    3.600258   -1.651041
H       0.511990    4.787723    0.761706
H       1.521586    2.761910    2.278845
