16

O      -0.161869    1.421832   -0.027310
C      -0.041646    0.049898   -0.036965
C       0.625023   -0.774872   -1.133238
N      -0.367524   -1.903370   -0.839708
C      -1.153803   -0.956166    0.005700
C      -0.278177   -0.798831    1.224631
C       0.476111   -2.090249    1.443137
C       0.338262   -2.792384    0.075307
O       0.789925   -3.854045   -0.235839
H       0.572640    1.794406    0.472913
H       0.434573   -0.373523   -2.131180
H       1.682844   -1.048363   -1.041968
H      -2.230734   -0.886534   -0.063986
H      -0.675363   -0.233041    2.059675
H       1.540678   -1.988200    1.678058
H       0.028569   -2.700263    2.235314
