18

C      -0.028327    1.452332    0.162509
C       1.535862    1.564112    0.006095
C       1.990825    1.350769    1.432960
C       1.986572    0.040595    1.724334
C       0.838937   -0.653023    2.455179
C       0.411518   -1.040731    0.980883
C       1.883506   -0.864304    0.500461
C       1.429380    0.107140   -0.577617
N       0.002015   -0.023417   -0.096522
H      -0.453578    1.767864    1.121362
H      -0.585216    1.941312   -0.647081
H       1.941750    2.390792   -0.582032
H       1.760832    2.114998    2.172165
H       1.074531   -1.582178    2.988362
H       0.190996   -0.025784    3.071644
H      -0.173680   -1.960263    0.884656
H       2.591472   -1.682609    0.367721
H       1.610222   -0.056645   -1.641704
