17

O      -0.022275    1.436581   -0.061269
C       0.004682    0.034789   -0.000443
C      -0.036014   -0.661470    1.388169
O       1.020473   -0.618477    2.279678
C      -1.495366   -0.132562    1.553927
C      -1.390086   -0.662678    0.101253
O      -2.433341   -0.637181   -0.794612
C      -0.656129   -1.906707    0.679119
O       0.105338   -2.655301   -0.236844
H       0.857895    1.757460    0.159577
H       0.701980   -0.399190   -0.721965
H       0.712107   -0.925077    3.139138
H      -2.151217   -0.693573    2.225730
H      -1.603035    0.944279    1.656268
H      -2.140168   -1.064793   -1.607311
H      -1.278865   -2.548103    1.317438
H       0.826139   -3.075181    0.243812
