16

N      -0.436057    0.837397    0.994685
C      -0.185742   -0.064307    0.119912
N      -1.122022   -0.516627   -0.762191
C      -2.490531   -0.033379   -0.747033
C      -3.345403   -0.663206    0.378749
C      -4.723158   -0.195419    0.331126
C      -5.851649    0.210751    0.253737
C       1.121478   -0.687016   -0.038329
N       2.171132   -1.163517   -0.128514
H       0.393909    1.072633    1.531663
H      -0.885358   -1.305316   -1.339347
H      -2.470033    1.051028   -0.615086
H      -2.936485   -0.250907   -1.720474
H      -3.316280   -1.756249    0.288082
H      -2.889388   -0.407543    1.341008
H      -6.852137    0.563049    0.204942
