15

C       0.222362    1.486926    0.139858
C       0.058472    0.011594    0.005391
C      -0.068729   -0.817681   -1.085068
N      -0.192256   -2.107151   -0.663980
N      -0.146836   -2.137419    0.630272
N       0.003868   -0.855215    1.055800
C       0.069474   -0.599230    2.478690
C       1.363157   -0.049573    2.903969
N       2.369552    0.406696    3.238757
H       1.160915    1.747835    0.640240
H       0.226448    1.948117   -0.849567
H      -0.595497    1.938137    0.713799
H      -0.077921   -0.558366   -2.131625
H      -0.725333    0.089939    2.785062
H      -0.105610   -1.559541    2.970539
