21

C       0.059697    1.495803   -0.203194
C      -0.072821    0.017753    0.094236
C      -1.146959   -0.693580   -0.703094
O       1.166814   -0.709005    0.191911
C       0.364165   -0.574698    1.374635
C       0.973545    0.166505    2.539770
C       2.147818   -0.633418    3.148310
C       2.751609    0.031379    4.295437
C       3.229989    0.602647    5.238762
H       0.897954    1.946458    0.329228
H       0.225315    1.645297   -1.275739
H      -0.857496    2.029659    0.068431
H      -0.955049   -0.591719   -1.776848
H      -1.171328   -1.758697   -0.460652
H      -2.134148   -0.265217   -0.497963
H      -0.128963   -1.507995    1.663229
H       1.336116    1.150537    2.235440
H       0.206002    0.326168    3.306041
H       1.797430   -1.630875    3.444859
H       2.901569   -0.793360    2.368222
H       3.663663    1.095189    6.073212
