19

C       0.379486    1.304378    0.014192
O       0.971995    0.023112   -0.043021
C       0.785099   -0.738054    1.109239
C      -0.599647   -1.369949    1.435758
C       0.167596   -2.658357    1.852484
C       1.383372   -2.166925    1.036578
O       1.286278   -2.724992   -0.276408
C       2.208630   -2.328234   -1.179947
O       2.188474   -2.700504   -2.314359
H       0.789092    1.900601    0.844009
H       0.604151    1.805355   -0.929522
H      -0.711324    1.243337    0.134328
H       1.183994   -0.217379    1.995498
H      -1.225326   -0.879630    2.183269
H      -1.172946   -1.529494    0.519848
H       0.386919   -2.693551    2.921893
H      -0.243305   -3.616496    1.534208
H       2.390089   -2.321242    1.436376
H       2.973447   -1.656141   -0.752233
