18

C       0.052836    1.540267    0.076486
C      -0.009301    0.012746   -0.006392
C      -1.446927   -0.532848   -0.060711
C      -2.224133   -0.150929   -1.322020
N      -1.414057   -1.999436    0.073827
N      -0.904898   -2.820697   -0.827945
N      -1.050918   -4.011775   -0.325519
N      -1.644897   -3.908880    0.875717
N      -1.872371   -2.654184    1.128886
H       1.088777    1.869449    0.194162
H      -0.342417    2.018566   -0.824245
H      -0.514087    1.916397    0.935159
H       0.536512   -0.346061   -0.885933
H       0.484328   -0.421245    0.870175
H      -1.993658   -0.206900    0.828483
H      -3.224346   -0.591527   -1.309702
H      -2.331690    0.934464   -1.375578
H      -1.702996   -0.496058   -2.218735
