15

C      -0.027947    1.439048    0.033843
N      -0.008413   -0.013201    0.015371
C      -0.026590   -0.772109   -1.113135
C       0.000103   -2.112384   -0.759580
C       0.036145   -2.164438    0.642997
C       0.030819   -0.856204    1.118264
C       0.058991   -0.389383    2.489105
O       0.093288   -1.117382    3.461610
H       0.866966    1.840778    0.517757
H      -0.056049    1.799109   -0.995713
H      -0.910738    1.816585    0.557921
H      -0.057277   -0.303522   -2.085110
H      -0.006091   -2.944084   -1.446669
H       0.063758   -3.037541    1.275895
H       0.047237    0.717202    2.614157
