21

C      -0.077133    1.597542   -0.001369
C      -0.011191    0.072690    0.010657
C       1.070423   -0.605687   -0.886693
C       2.085484   -0.297962    0.271827
C       0.818530   -0.601763    1.145924
C       0.687862   -2.115491    0.857891
O       1.434656   -2.986170    1.653965
C      -0.420045   -2.652198   -0.015201
C       0.860389   -2.116179   -0.640044
H       0.895042    2.081924    0.113680
H      -0.510355    1.948510   -0.944729
H      -0.722605    1.956557    0.808149
H      -1.031488   -0.294323   -0.114873
H       1.240139   -0.280512   -1.914578
H       2.930981   -0.979991    0.387167
H       2.430469    0.735707    0.312479
H       0.731517   -0.286828    2.187967
H       0.933902   -3.153475    2.459698
H      -0.476708   -3.736596   -0.014989
H      -1.382608   -2.168244   -0.130522
H       1.529479   -2.820260   -1.121245
