18

C       0.035810    1.454117    0.039336
C       0.013784   -0.045369   -0.005436
C       0.099186   -0.745875   -1.145431
C       0.025726   -2.204227   -1.213786
N       0.135889   -2.813471   -2.325544
O      -0.204981   -2.906210   -0.056808
C      -0.178631   -2.268052    1.194276
C       1.073649   -1.648692    1.729738
C      -0.099112   -0.769284    1.282103
H       0.865244    1.813849    0.660797
H       0.136017    1.885725   -0.959128
H      -0.884941    1.843057    0.492381
H       0.210413   -0.261438   -2.108018
H       0.043299   -3.820745   -2.179895
H      -0.826245   -2.801037    1.880713
H       1.273530   -1.738787    2.791911
H       1.949217   -1.645798    1.090119
H      -0.668847   -0.273526    2.062346
