20

O       0.004507    1.360756    0.516407
C      -0.067957    0.009622    0.112785
C      -1.507682   -0.519876   -0.054119
C      -2.170429   -0.052486   -1.376684
C      -2.153464    1.394328   -1.582522
N      -2.112290    2.539211   -1.743039
C      -1.546526   -2.035039    0.003165
C      -1.583907   -2.744486    1.332067
C      -2.798234   -2.757984    0.436657
H      -0.300769    1.925150   -0.202360
H       0.504743   -0.175920   -0.812194
H       0.416383   -0.565585    0.908072
H      -2.089531   -0.116452    0.783472
H      -1.656030   -0.517527   -2.227221
H      -3.209473   -0.396405   -1.412621
H      -0.965067   -2.523808   -0.776581
H      -1.014167   -3.659994    1.443544
H      -1.625368   -2.135802    2.229405
H      -3.650860   -2.157910    0.739088
H      -3.062608   -3.682869   -0.063517
