21

O      -0.125715    1.441300   -0.021910
C       0.025589    0.029519   -0.038552
C      -1.363967   -0.588823    0.076903
C      -1.345515   -2.095210    0.078943
C      -0.678778   -3.058189    1.091046
C      -1.355186   -3.990143    0.071206
C      -2.591981   -3.043452   -0.093217
C      -2.480538   -3.042758   -1.630221
C      -1.020686   -3.051811   -1.136821
H       0.747616    1.838123   -0.087452
H       0.505706   -0.310002   -0.970548
H       0.656882   -0.313330    0.796807
H      -1.831828   -0.220867    0.998801
H      -1.978220   -0.220810   -0.754293
H       0.416531   -3.070553    1.120249
H      -1.086864   -3.058635    2.108072
H      -1.378330   -5.080539    0.041836
H      -3.484101   -3.039904    0.536622
H      -2.829064   -3.942967   -2.146992
H      -2.824810   -2.145984   -2.155257
H      -0.095374   -3.062361   -1.716782
