21

C      -0.232810    1.562093    0.004525
C      -0.029014    0.054385    0.016170
O      -1.247101   -0.640170   -0.151047
C       1.179541   -0.435755   -0.824495
O       1.956555   -0.655756    0.368689
C       0.781238   -0.524454    1.208636
C       1.021262    0.261715    2.457456
C       0.063934    0.106720    3.618420
C       1.455729   -0.455503    3.713665
H       0.712249    2.092075    0.151439
H      -0.639546    1.881737   -0.963604
H      -0.930698    1.865611    0.790229
H      -1.764784   -0.191449   -0.827739
H       0.964049   -1.369035   -1.361519
H       1.659148    0.281691   -1.500854
H       0.374864   -1.515355    1.464084
H       1.442759    1.249645    2.300725
H      -0.179272    0.990885    4.196610
H      -0.760750   -0.588518    3.502424
H       1.575883   -1.532318    3.661547
H       2.171040    0.041854    4.358660
