15

C       0.007181    1.546933   -0.011327
C      -0.002873    0.052820    0.043142
C       0.014666   -0.811683   -1.024457
O       0.002815   -2.148908   -0.625453
C      -0.038196   -2.072059    0.701938
C      -0.046187   -0.820288    1.173657
O       0.100363   -0.849550    2.555261
C      -0.149880   -2.234368    2.843088
O       0.116349   -3.030415    1.650673
H       0.881787    1.958506    0.504223
H       0.030226    1.899509   -1.045679
H      -0.880216    1.969902    0.471943
H      -0.038205   -0.656869   -2.088073
H       0.511388   -2.569542    3.642449
H      -1.211400   -2.365656    3.101627
