22

C       0.033534    1.528181   -0.009689
C      -0.081801    0.018197    0.010908
C      -0.888117   -0.642182    1.071730
N       0.571616   -0.640509    1.158678
C       1.269771   -1.927399    0.986927
C       1.580383   -2.301815   -0.466345
C       0.342303   -2.107011   -1.343879
C      -0.035447   -0.623475   -1.370783
O      -1.305828   -0.391469   -1.976097
H       1.002770    1.840261   -0.416182
H      -0.753868    1.956433   -0.637793
H      -0.055033    1.935778    0.999975
H      -1.407002   -0.038272    1.813292
H      -1.389988   -1.576866    0.828218
H       2.202925   -1.874681    1.559787
H       0.665680   -2.720951    1.445646
H       2.395323   -1.670854   -0.845445
H       1.940446   -3.335391   -0.507698
H       0.527801   -2.448218   -2.369850
H      -0.500902   -2.695964   -0.963884
H       0.746434   -0.094728   -1.943329
H      -1.247649   -0.666595   -2.897221
