17

C      -0.089779    1.525362   -0.001500
C      -0.045847   -0.000681   -0.005530
C      -1.419412   -0.540203   -0.348958
O      -2.285871   -0.690063    0.478993
C       1.246558   -0.670300   -0.591904
O       2.001461   -0.181154    0.581261
C       0.739080   -0.706370    1.141084
C       0.957767   -1.948644    0.219443
O      -0.109457   -2.730606   -0.235836
H       0.894928    1.924775    0.246325
H      -0.390288    1.910676   -0.982315
H      -0.819708    1.879348    0.732548
H      -1.617300   -0.699360   -1.431581
H       1.708901   -0.558209   -1.572847
H       0.597817   -0.643617    2.219901
H       1.850514   -2.526798    0.476172
H      -0.533072   -3.164167    0.513143
