13

C       0.014513    1.147899    0.140748
N       1.201815    1.581143    0.300912
C       2.062568    0.631195   -0.334882
C       1.987728   -0.910110    0.047654
N       1.058491   -1.370656    1.033526
C      -0.087628   -0.955816    0.662908
N      -0.131180   -0.137488   -0.557546
C       1.236650   -0.343097   -1.118375
H      -0.871929    1.620054    0.548335
H       3.037373    0.978765   -0.649550
H       2.919358   -1.451679   -0.046343
H      -1.004005   -1.100150    1.223495
H       1.331779   -0.607389   -2.164638
