18

C      -0.170840    1.453359   -0.200039
C       0.057865   -0.034626   -0.099813
C       0.886305   -0.785172   -1.110232
N       1.576995   -0.098062   -2.155000
C       1.127224   -0.096534   -3.438729
O       0.094536   -0.610758   -3.811102
C       1.416690   -0.615687    0.308088
C       2.549113    0.233444    0.527501
C       3.515793    0.937101    0.672858
H       0.707595    1.970648   -0.590995
H      -1.011715    1.662218   -0.868956
H      -0.401356    1.878789    0.781679
H      -0.784614   -0.598637    0.290884
H       0.548018   -1.774465   -1.399375
H       2.476353    0.310099   -1.943059
H       1.825713    0.432365   -4.117552
H       1.394688   -1.506827    0.927757
H       4.360239    1.559607    0.838267
