17

O       0.016881    1.411174   -0.060603
C       0.061589    0.000165   -0.031515
C      -1.352763   -0.596301   -0.005608
C      -1.465530   -2.122192    0.184402
C      -2.949488   -2.353592    0.553104
C      -2.440557   -1.639603    1.827000
O      -1.133436   -2.272996    1.612792
C      -2.085895   -0.239505    1.305013
O      -2.229003    0.841224    1.816016
H      -0.545150    1.693853    0.673260
H       0.585132   -0.316802   -0.940470
H       0.628856   -0.380704    0.830681
H      -1.910572   -0.225107   -0.872507
H      -0.901016   -2.783398   -0.471826
H      -3.729779   -1.884121   -0.051354
H      -3.167222   -3.403752    0.749942
H      -2.858898   -1.749347    2.824876
