17

O       0.908157   -0.275287   -0.276222
C       0.434172    0.816161   -0.441529
C       1.086319    2.105135    0.043804
C       1.033894    3.181172   -1.041721
O      -0.018069    3.478666   -1.560283
C       2.353238    3.817442   -1.433469
C       2.202991    4.882229   -2.531126
C       3.478816    5.486738   -2.890954
C       4.544076    5.969040   -3.168430
H      -0.528792    0.973168   -0.969418
H       0.477349    2.473625    0.880606
H       2.094531    1.894817    0.405396
H       2.813540    4.245471   -0.533196
H       3.038538    3.020218   -1.751314
H       1.736295    4.427626   -3.411978
H       1.500574    5.651937   -2.192382
H       5.476713    6.405592   -3.427193
