20

C      -0.293902    1.475925    0.167672
C      -0.092432   -0.040576    0.201819
N       0.825773   -0.470743    1.258538
C       0.248576   -0.736517    2.569778
C      -0.346886   -2.071575    2.695294
C      -0.826204   -3.170061    2.783003
C       2.138908   -0.725456    0.934264
C       3.031486   -1.285763    2.032841
O       2.569755   -0.507493   -0.185247
H       0.655060    1.978064   -0.038224
H      -1.004981    1.746946   -0.619283
H      -0.686613    1.856387    1.117092
H      -1.046687   -0.557320    0.354934
H       0.329107   -0.380687   -0.744883
H       1.006580   -0.599015    3.344782
H      -0.518493    0.022060    2.767078
H      -1.251352   -4.140243    2.862148
H       2.605106   -2.183005    2.491121
H       3.990556   -1.529961    1.577743
H       3.200177   -0.549395    2.826231
