17

O       0.007978    0.045636    0.155161
C      -0.015016    1.238540    0.068073
C      -1.158593    2.282979    0.071376
C      -0.076586    3.343044    0.260747
O      -0.112567    4.668422   -0.221245
C       0.728838    5.102380    0.888172
C       0.638318    3.717423    1.580564
C       1.782523    2.707202    1.294790
C       1.083770    2.317546   -0.045430
H      -1.593425    2.349918   -0.934870
H      -1.964828    2.177576    0.801575
H       1.729842    5.394299    0.547775
H       0.266791    5.936323    1.424872
H       0.149663    3.703719    2.555112
H       2.770694    3.157289    1.167947
H       1.867070    1.891240    2.016759
H       1.668159    2.297694   -0.967049
