16

C      -0.039832    1.428354   -0.121306
N      -0.004231   -0.011701   -0.087606
C      -1.072524   -1.008300   -0.012478
C       0.038808   -2.115397    0.019251
N       0.028274   -2.968461    1.193990
C       0.093299   -2.922496   -1.195406
N       0.155409   -3.544269   -2.167489
C       1.043372   -0.887251   -0.024081
O       2.233888   -0.748717    0.034444
H       0.992194    1.785746   -0.137407
H      -0.556104    1.791336   -1.017292
H      -0.543916    1.837402    0.762497
H      -1.658977   -0.975272    0.912200
H      -1.740764   -1.028592   -0.878090
H       0.810261   -3.616101    1.154844
H       0.162428   -2.400680    2.026597
