17

C       0.073162    1.501137   -0.135031
C       0.002365   -0.014694    0.093275
O       0.546579   -0.366047    1.360561
C      -1.403415   -0.527104   -0.017118
C      -2.022090   -1.253236   -0.968654
O      -3.334689   -1.455387   -0.562965
C      -3.405051   -0.832905    0.630797
N      -4.627404   -0.822142    1.248886
N      -2.306240   -0.262938    1.020549
H       1.099716    1.846941    0.013492
H      -0.246995    1.761470   -1.149197
H      -0.579011    2.020822    0.573825
H       0.625434   -0.521107   -0.652719
H      -0.149157   -0.189192    2.006357
H      -1.742152   -1.689944   -1.910288
H      -5.217219   -1.614748    1.043258
H      -4.576879   -0.593228    2.230007
