20

C      -0.016176    1.611034   -0.000022
C       0.003561    0.080319   -0.001773
C       0.703799   -0.509577   -1.230868
C       0.723733   -2.041566   -1.232995
C       1.424864   -2.616298   -2.463514
C       1.458651   -4.125324   -2.491938
O       0.993270   -4.853608   -1.652816
C       2.135725   -4.703433   -3.678612
N       2.666074   -5.139945   -4.608822
H       1.000078    2.020387   -0.011958
H      -0.539336    2.001533   -0.879967
H      -0.521776    2.001888    0.888163
H       0.502597   -0.282718    0.906210
H      -1.024709   -0.301424    0.045059
H       0.205518   -0.147843   -2.141281
H       1.733792   -0.129149   -1.279579
H       1.222841   -2.412365   -0.330426
H      -0.299795   -2.431041   -1.189324
H       0.947917   -2.281981   -3.396670
H       2.464043   -2.264069   -2.541263
