19

C       0.065867    1.552865   -0.219594
C       0.018097    0.100082   -0.138708
C      -0.014096   -1.103630   -0.070276
C      -0.034911   -2.540574   -0.037298
C      -0.427993   -3.279486    1.218574
C      -0.762138   -2.553832    2.502379
N      -1.299601   -3.301437    0.050541
C      -2.563902   -2.578113    0.067516
H       0.991842    1.945522    0.215392
H       0.015262    1.897775   -1.258427
H      -0.771271    2.008178    0.321037
H       0.696705   -3.009777   -0.693051
H       0.070585   -4.236060    1.377314
H      -1.084697   -1.526018    2.328384
H      -1.549613   -3.079919    3.053253
H       0.123543   -2.518834    3.145191
H      -2.525017   -1.581398    0.525559
H      -2.907815   -2.458741   -0.964591
H      -3.303660   -3.182436    0.602059
