20

C       0.001249    1.573714   -0.038642
C       0.094027    0.049599   -0.006984
C       0.826533   -0.589180   -1.213017
C       1.277045   -1.962434   -0.712139
C       2.562293   -2.021662    0.067182
C       1.251540   -1.931321    0.806972
C       0.795945   -0.542447    1.249225
O       1.929379    0.217125    1.668678
H       0.998467    2.026325   -0.051270
H      -0.526966    1.918362   -0.933338
H      -0.542843    1.965250    0.829850
H      -0.923214   -0.365203    0.005341
H       0.169130   -0.666401   -2.084063
H       1.682823    0.025825   -1.515700
H       0.955044   -2.846787   -1.250507
H       3.086516   -2.970527    0.111321
H       3.204633   -1.148756    0.075242
H       0.923439   -2.786619    1.385732
H       0.082498   -0.621324    2.082369
H       1.613199    1.076451    1.964670
