16

N      -0.472127    1.051187    0.438333
C       0.009695   -0.250051   -0.043180
C       0.410103   -1.134921    1.178337
C      -1.062392   -1.646585    1.228062
O      -1.889934   -0.957000    2.127077
C      -1.207923   -1.201849   -0.259741
C       0.978449   -0.138265   -1.138385
N       1.740759   -0.025188   -2.001163
H       0.308835    1.615754    0.763437
H      -0.911558    1.565250   -0.321254
H       1.115359   -1.918390    0.893292
H       0.779316   -0.601904    2.057189
H      -1.196873   -2.710789    1.428894
H      -1.763840   -0.014654    1.941376
H      -2.147417   -0.722967   -0.544045
H      -0.970949   -2.004677   -0.961002
