19

C       0.323942    1.514235    0.202197
C      -0.248386    0.139135   -0.158161
C       0.429379   -0.469466   -1.364413
N       1.742165   -1.116512   -1.123989
C       0.606015   -1.924504   -1.541334
C       0.042562   -3.116534   -0.774309
O      -0.138059   -3.842514   -2.013844
C       0.451376   -2.782492   -2.794706
H       1.394185    1.438291    0.417031
H       0.195196    2.226087   -0.620970
H      -0.172059    1.931730    1.083469
H      -0.131240   -0.543518    0.691030
H      -1.325381    0.218599   -0.355933
H       0.332161    0.110164   -2.284021
H       2.375050   -0.960145   -1.905426
H       0.757329   -3.608436   -0.103087
H      -0.907662   -2.960710   -0.248876
H      -0.231256   -2.406942   -3.568102
H       1.394564   -3.093168   -3.267214
