18

O      -0.081790    1.408852    0.020372
C       0.034035    0.032786    0.030109
C      -0.167260   -0.811812   -1.230611
C       0.645766   -2.080357   -1.424822
C       0.812076   -2.568960    0.021300
C       1.867202   -1.720357    0.773087
C       0.691091   -0.801116    1.138866
N      -0.307327   -1.907765    0.851205
C      -1.074954   -0.993558   -0.045823
H       0.647804    1.775570   -0.491175
H      -0.549405   -0.255053   -2.080011
H       0.080319   -2.793874   -2.036034
H       1.615778   -1.923635   -1.908251
H       0.859040   -3.653865    0.125102
H       2.266431   -2.228335    1.653906
H       2.691300   -1.308116    0.185293
H       0.637218   -0.335164    2.127008
H      -2.155795   -0.929476   -0.030246
