15

C      -0.037749    1.575790   -0.021170
C       1.448208    1.961186    0.003509
C       2.102243    0.827056   -0.315389
C       2.444547   -0.258975    0.665768
C       1.693938   -1.332110   -0.061589
C       0.868573   -0.635932    0.973549
N      -0.007434    0.060299   -0.005483
C       1.114799   -0.204560   -0.955139
H      -0.540356    1.997644    0.856093
H      -0.623632    1.857258   -0.904671
H       1.820961    2.689599    0.717335
H       3.167754   -0.332434    1.467994
H       1.890956   -2.377936   -0.249598
H       0.550374   -0.940055    1.962537
H       0.911188   -0.240085   -2.024685
