19

C      -0.036507    1.512923   -0.308007
C       1.435224    1.631042    0.219037
C       1.384207    0.130117    0.607288
C       1.283188   -0.332996    2.054881
O      -0.113354   -0.219735    2.360024
C      -0.861888   -0.553409    1.178979
C      -0.031433   -0.005443    0.028491
C       0.649604   -0.941220   -0.994924
O       1.950240   -0.778785   -0.361600
H      -0.755269    2.073666    0.294292
H      -0.193777    1.763515   -1.360049
H       2.189359    1.845949   -0.540062
H       1.564727    2.317851    1.058860
H       1.630493   -1.374572    2.127256
H       1.820584    0.279664    2.783242
H      -0.982106   -1.645293    1.093875
H      -1.851159   -0.101659    1.292609
H       0.318531   -1.986927   -0.972551
H       0.657058   -0.587732   -2.032874
