19

C       0.390439    1.437846    0.084569
C       0.057930   -0.055463    0.066133
C       0.676704   -0.757659    1.287302
O      -1.362849   -0.134168    0.110602
C       0.576985   -0.677824   -1.253030
C       0.174008   -2.110587   -1.487095
O      -0.741135   -2.689676   -0.937218
C       0.976638   -2.912794   -2.526072
O       1.948015   -2.486921   -3.090870
H       1.470675    1.604891    0.036667
H      -0.081554    1.943092   -0.762965
H       0.007915    1.889349    1.003998
H       0.282830   -0.307801    2.202529
H       0.428137   -1.822813    1.300943
H       1.767623   -0.659635    1.295501
H      -1.589841   -1.071077    0.045145
H       0.170633   -0.107798   -2.102033
H       1.665628   -0.604927   -1.349141
H       0.566002   -3.931729   -2.686929
