17

C      -0.159705    1.522279   -0.019896
C      -0.045339    0.027511    0.013080
C       0.078691   -0.810208   -1.079611
N       0.115626   -2.104523   -0.638823
C       0.057101   -2.119823    0.741226
C      -0.050193   -0.808390    1.160641
C       0.082937   -3.347065    1.545777
N      -0.146628   -4.522423    0.832044
O       0.324525   -3.353533    2.738054
H       0.612471    1.997963    0.594701
H      -0.054000    1.904661   -1.039330
H      -1.128644    1.864336    0.361827
H       0.145181   -0.577814   -2.131466
H       0.367376   -2.899155   -1.201700
H      -0.142867   -0.503590    2.191751
H      -0.821464   -4.479943    0.082009
H      -0.253521   -5.328818    1.432138
