17

O      -0.014276    0.005047   -0.181151
C      -0.021534    1.195169   -0.015680
C      -1.250337    2.079819    0.191249
O      -0.773680    3.350856    0.571677
C       0.569982    3.543291    0.092904
C       1.356769    4.309526    1.170481
C       2.063853    3.210701    1.927052
C       1.986824    2.035743    1.304952
C       1.191500    2.130815    0.018556
H      -1.823632    2.110416   -0.751458
H      -1.905553    1.681752    0.972223
H       0.543573    4.059375   -0.875201
H       2.073772    5.012082    0.726060
H       0.671373    4.897554    1.789618
H       2.588026    3.386487    2.859763
H       2.423366    1.100876    1.635080
H       1.810771    1.939084   -0.864740
