15

C       0.011123    1.468183    0.023279
C       0.013074    0.016170   -0.026983
C       0.030484   -1.188393   -0.070570
C       0.004110   -2.599279   -0.116495
N       1.075963   -3.347229   -0.261532
O       0.630086   -4.632069   -0.256530
N      -0.731529   -4.694894   -0.107411
C      -1.142779   -3.461321   -0.018936
C      -2.574689   -3.087791    0.153141
H       0.653247    1.833315    0.832064
H       0.381922    1.893717   -0.915516
H      -0.998439    1.856654    0.193305
H      -2.716811   -2.517604    1.076541
H      -2.911001   -2.455446   -0.674507
H      -3.196344   -3.983469    0.190328
