19

C      -0.117374    1.552504   -0.186626
C       0.055544    0.067370    0.035246
C       1.389814   -0.621830   -0.136330
C       2.549683    0.170216   -0.460890
N       3.490191    0.796282   -0.711502
N       0.747674   -0.499991    1.182240
C       1.335276    0.345642    2.188137
C       0.639089    0.369466    3.522770
C       1.953501   -0.355210    3.367249
H       0.809407    2.111810   -0.046712
H      -0.464714    1.734149   -1.208271
H      -0.870664    1.952447    0.499735
H      -0.806479   -0.527706   -0.264180
H       1.428518   -1.632004   -0.535803
H       1.815888    1.265606    1.861874
H       0.618114    1.306027    4.068241
H      -0.254073   -0.236628    3.618939
H       1.924812   -1.438306    3.358785
H       2.845654    0.078111    3.803994
