18

O      -0.036509    1.409018    0.176036
C      -0.026268   -0.001313   -0.007918
C      -1.447777   -0.479128   -0.020068
C      -2.580106    0.120627   -0.880024
N      -3.557530   -0.450497    0.121300
C      -3.275468   -1.919504    0.111802
C      -2.464227   -1.926383    1.372160
C      -1.748323   -1.999166    0.030159
C      -2.446199   -0.392536    1.189786
H       0.874019    1.717787    0.187148
H       0.465073   -0.276607   -0.956735
H       0.525050   -0.507426    0.801717
H      -2.607973    1.211948   -0.835819
H      -2.710946   -0.225898   -1.910082
H      -3.954869   -2.653141   -0.301923
H      -2.470066   -2.583016    2.230878
H      -1.208704   -2.821333   -0.420999
H      -2.474787    0.396159    1.937853
