20

C       0.118783    1.543360   -0.135073
C       0.063499    0.018831   -0.004606
C       0.635040   -0.528148    1.324771
C      -0.192077   -0.108098    2.546598
C       0.784638   -2.019440    1.245628
C       0.205267   -3.007420    1.972439
O       0.661197   -4.214420    1.509186
C       1.506155   -3.882822    0.510304
N       1.626306   -2.615039    0.300926
H       1.145040    1.911806   -0.024486
H      -0.241511    1.860225   -1.118743
H      -0.498132    2.047325    0.615613
H      -0.972582   -0.329430   -0.111298
H       0.628291   -0.436789   -0.824274
H       1.648135   -0.114298    1.433016
H      -1.222739   -0.473227    2.467364
H       0.237931   -0.505290    3.471409
H      -0.232232    0.979615    2.640608
H      -0.491499   -3.045216    2.790685
H       1.992180   -4.696806   -0.004800
