22

C      -0.182936    1.447201    0.003026
C      -0.016112   -0.048929    0.012066
C       0.668827   -0.941253   -1.069578
C       0.181985   -1.930849    0.025068
C       0.726486   -0.922408    1.076008
C      -1.148884   -1.128484    0.026655
N      -1.993916   -1.206736    1.198225
C      -3.332402   -0.639223    1.062070
C      -3.135307   -2.112721    1.104440
H       0.789862    1.951198   -0.006034
H      -0.739453    1.779295   -0.880902
H      -0.727004    1.785794    0.891317
H       0.179571   -0.997881   -2.047489
H       1.751262   -0.828600   -1.170534
H       0.290507   -3.015944    0.027612
H       1.813624   -0.806703    1.113930
H       0.279938   -0.961603    2.068827
H      -1.728908   -1.195978   -0.911548
H      -3.711476   -0.104881    1.928527
H      -3.603852   -0.202392    0.101814
H      -3.274395   -2.659268    0.172548
H      -3.365893   -2.678057    2.002848
