21

C      -0.316670    1.512041   -0.081643
C       0.003328    0.026562    0.014979
O       0.756010   -0.389202   -1.145635
C       1.942846   -1.056333   -0.688270
C       1.498828   -1.698376    0.631051
C       0.818864   -0.460163    1.243731
C       1.907382    0.524048    1.722626
C       3.017780    0.672263    0.709406
C       3.049751   -0.050860   -0.409519
H       0.594718    2.113311   -0.123475
H      -0.888682    1.706744   -0.993269
H      -0.920363    1.837005    0.773062
H      -0.944808   -0.533081    0.001848
H       2.231502   -1.769434   -1.463984
H       0.778118   -2.500666    0.445179
H       2.325441   -2.089817    1.228636
H       0.147671   -0.702774    2.072279
H       1.471018    1.505596    1.945773
H       2.324851    0.170327    2.677150
H       3.798306    1.397519    0.927674
H       3.840151    0.076524   -1.143077
