18

C      -0.333363    1.463972   -0.107355
N       0.027119    0.051802    0.014136
C       1.352442   -0.448898   -0.301552
C       2.530304    0.508930   -0.280434
O       2.458345    1.212704    0.960394
C       1.749115    0.437031    1.898527
C       1.026817    1.309729    2.910990
O       0.961921    2.508113    2.889585
C       0.826063   -0.488920    1.097392
H       0.443371    2.171107    0.201129
H      -0.599224    1.654206   -1.151788
H      -1.226002    1.643665    0.499038
H       1.407568   -1.321990   -0.946913
H       3.469048   -0.060965   -0.358641
H       2.516722    1.257762   -1.079473
H       2.424444   -0.213954    2.490207
H       0.546306    0.709042    3.718925
H       0.456346   -1.387301    1.584480
