21

C      -0.504006    0.465687   -0.486810
O       0.788369    0.382869    0.092337
C       1.155697   -0.602911    1.019061
C       2.674718   -0.447419    1.099095
C       0.310834   -0.805185    2.324669
O      -0.794491   -1.317492    1.480150
C       0.424135   -1.998037    0.972189
C       0.779900   -2.293932    2.454562
C       2.107031   -2.846334    2.972510
H      -1.272719    0.761636    0.232150
H      -0.415731    1.232341   -1.263158
H      -0.816255   -0.474933   -0.953342
H       3.092444   -0.738929    2.060052
H       3.173611   -1.017922    0.309452
H       2.903486    0.607937    0.936765
H       0.047230   -0.094290    3.110374
H       0.295078   -2.694987    0.141491
H      -0.052962   -2.845164    2.896619
H       2.413276   -2.345388    3.897415
H       1.983434   -3.907702    3.209221
H       2.929166   -2.770254    2.261296
