21

C       0.226841    1.494432   -0.088889
C      -0.181360    0.036921    0.157364
C       0.647773   -0.620123    1.238894
C       0.791657   -2.122667    1.435916
C       0.501247   -3.071660    0.274674
C       1.535587   -2.699061   -0.769713
C       2.343199   -1.722023   -0.349588
C       1.993293   -1.264507    1.028718
O       3.013620   -0.878385    1.899166
H       1.268805    1.558015   -0.419301
H      -0.400146    1.958413   -0.856852
H       0.134308    2.092013    0.824592
H      -1.239289   -0.005797    0.448391
H      -0.095315   -0.527314   -0.776684
H       0.615359   -0.093954    2.191883
H       0.708984   -2.492594    2.451394
H       0.592444   -4.123328    0.576584
H      -0.518693   -2.957093   -0.117020
H       1.559532   -3.155756   -1.753093
H       3.152434   -1.272278   -0.914168
H       3.607688   -1.630274    2.006169
