18

C      -0.004254    1.306545    0.258016
N      -0.108419   -0.143012    0.379647
C      -1.138214   -0.730722   -0.025141
O      -2.318107   -0.265016   -0.568507
C      -2.872768   -1.622160   -0.625025
C      -1.584013   -2.190585    0.001819
O      -0.903998   -3.073230   -0.848285
C      -1.604344   -2.728179    1.431539
O      -0.258598   -2.897738    1.849601
H       0.871215    1.552213   -0.352306
H      -0.888213    1.777194   -0.186310
H       0.164096    1.738202    1.250353
H      -3.789970   -1.691755   -0.035534
H      -3.037051   -1.940901   -1.655484
H      -0.153237   -3.399512   -0.331446
H      -2.164643   -2.054684    2.096313
H      -2.073152   -3.717321    1.458797
H       0.162778   -2.025866    1.784010
