17

C      -0.119929    1.458739   -0.016453
C      -0.022486   -0.053340    0.018412
O      -1.366568   -0.570270   -0.025839
C      -1.482731   -1.890928   -0.003667
N      -2.674383   -2.482955   -0.040184
N      -2.309778   -3.764540    0.000920
C      -3.263524   -4.853355   -0.017087
N      -1.006538   -3.961136    0.058320
N      -0.452858   -2.767195    0.056245
H       0.883061    1.893928    0.015557
H      -0.615225    1.795410   -0.931306
H      -0.687480    1.831609    0.840562
H       0.540491   -0.446273   -0.835139
H       0.468493   -0.410207    0.930264
H      -3.850433   -4.816064   -0.937410
H      -2.695583   -5.781442    0.032021
H      -3.933110   -4.772152    0.841829
