18

C      -0.025989    1.467880   -0.208444
C       0.019917   -0.009310    0.199699
C      -1.349190   -0.655829    0.165051
C      -1.953305   -1.299568   -1.064293
O      -0.945927   -1.971014   -1.833065
C      -0.669092   -2.881446   -0.736322
C      -1.643388   -2.132196    0.170708
O      -2.406029   -2.694727    1.171575
H       0.971315    1.917296   -0.178993
H      -0.415569    1.580180   -1.225447
H      -0.672128    2.046237    0.461408
H       0.689707   -0.548820   -0.477402
H       0.442383   -0.103690    1.207856
H      -2.116778   -0.136245    0.739271
H      -2.859258   -0.991284   -1.573107
H      -1.010918   -3.895311   -0.984655
H       0.390880   -2.908181   -0.459758
H      -2.909195   -3.427735    0.797862
