15

C      -0.007374    1.376365   -0.044361
O       0.039248   -0.056120    0.021471
C       0.665144   -0.548341    1.104480
O       1.162530    0.122186    1.976301
N       0.655970   -1.941864    1.073687
C       0.033529   -2.693460   -0.016106
C       1.263852   -2.631127    2.121975
O       1.311345   -3.834681    2.191114
H       1.002329    1.792577   -0.062742
H      -0.535221    1.608295   -0.968947
H      -0.542957    1.782614    0.816626
H       0.509143   -2.455496   -0.969831
H       0.170069   -3.749143    0.215005
H      -1.031057   -2.460935   -0.086095
H       1.687754   -1.943429    2.865838
