21

C      -0.023557    1.528781   -0.355333
C      -0.006034    0.038610   -0.065928
C      -1.253085   -0.695014   -0.519986
C       1.301804   -0.683774   -0.054296
N       0.556092   -0.479953    1.189827
C       1.115678    0.420491    2.182889
C       1.879947   -0.421612    3.223863
C       2.459084    0.398004    4.284134
N       2.908752    1.065388    5.113540
H       0.906608    2.027556   -0.075639
H      -0.177567    1.696697   -1.426361
H      -0.848317    2.020467    0.173567
H      -1.380479   -0.612409   -1.605135
H      -1.196547   -1.752710   -0.253079
H      -2.146137   -0.273187   -0.044838
H       1.375303   -1.710490   -0.404585
H       2.201791   -0.088093   -0.207822
H       1.797576    1.180087    1.771413
H       0.297817    0.951581    2.681297
H       1.200946   -1.160107    3.661318
H       2.682195   -0.980400    2.728985
