19

C      -0.197061    1.592073    0.002063
C       0.034474    0.090040    0.017838
C       1.170080   -0.555402   -0.834161
C       2.471416    0.057971   -0.299597
C       3.111879   -0.992873    0.582458
O       2.442503   -2.217675    0.432181
C       1.144603   -1.744442    0.194363
C       0.782843   -0.593713    1.202967
C       2.185288    0.029665    1.205622
H       0.729053    2.143840    0.188562
H      -0.592665    1.917349   -0.966554
H      -0.922734    1.884704    0.769065
H      -0.909159   -0.436590   -0.171438
H       1.082365   -0.705640   -1.909871
H       3.028295    0.835112   -0.803786
H       4.171661   -1.075148    0.782366
H       0.439212   -2.557432    0.044986
H       0.307715   -0.782281    2.165314
H       2.513043    0.784139    1.906775
