12

N       0.284151    0.774754    0.647827
C      -0.349848    0.537415   -0.533690
O      -0.098536    1.119361   -1.569760
C      -1.378056   -0.496628   -0.449996
C      -2.236843   -1.339159   -0.444012
C      -3.280976   -2.358957   -0.450899
C      -3.484616   -2.982393    0.863255
N      -3.649819   -3.476404    1.893325
H       1.006514    1.475875    0.670859
H       0.048535    0.273922    1.486771
H      -4.232199   -1.922770   -0.781950
H      -3.035926   -3.145092   -1.176590
