24

C      -0.391039    1.451773    0.765601
O      -0.638923    0.118099    0.387564
C       0.228320   -0.391050   -0.621814
C       1.653174   -0.619813   -0.105399
C      -0.399056   -1.697491   -1.072942
C      -1.596035   -1.745477   -1.965943
C      -2.276270   -0.502984   -2.501035
N      -0.295247   -2.234287   -2.432864
C       0.434792   -1.535781   -3.478778
H       0.561502    1.575357    1.300830
H      -0.385330    2.127813   -0.104809
H      -1.202128    1.750688    1.434721
H       0.266131    0.330656   -1.451217
H       1.638931   -1.305998    0.747432
H       2.274018   -1.060767   -0.891429
H       2.128223    0.313470    0.209437
H      -0.315558   -2.467854   -0.304992
H      -2.299299   -2.559241   -1.786193
H      -1.594424    0.334548   -2.657577
H      -2.771616   -0.713864   -3.455347
H      -3.041996   -0.173476   -1.791946
H       0.333289   -0.441232   -3.496276
H       1.499908   -1.773331   -3.386947
H       0.094862   -1.914172   -4.448646
