17

C      -0.000435    1.497079    0.080424
C      -0.035070    0.001959   -0.028079
C       0.656692   -0.815386   -1.144198
C       0.713970   -1.838239    0.010577
O       0.812088   -0.721870    0.960202
C      -0.769953   -2.182463    0.184944
O      -1.315789   -3.240251    0.314535
C      -1.371290   -0.738177    0.220520
O      -1.961690   -0.411415    1.455617
H       1.029216    1.863752    0.071838
H      -0.538682    1.943571   -0.762139
H      -0.489543    1.820077    1.003480
H       0.093474   -1.064266   -2.048125
H       1.645077   -0.420714   -1.385649
H       1.465575   -2.615883    0.125019
H      -2.128330   -0.583320   -0.553139
H      -1.281190   -0.553667    2.127044
