17

O       0.080668    1.369040   -0.136636
C       0.049198   -0.027792   -0.003885
C       0.658628   -0.580670    1.314268
C      -0.197956   -1.780888    1.604683
C      -1.316767   -1.817955    0.856946
C      -2.340404   -2.794668    0.896147
C      -3.230635   -3.606727    0.894058
C      -1.402967   -0.590727   -0.033139
O      -2.333805    0.380433    0.463887
H      -0.805463    1.667336    0.118923
H       0.601360   -0.462503   -0.845896
H       1.720173   -0.830720    1.214229
H       0.592646    0.169454    2.113935
H       0.059659   -2.533392    2.341882
H      -4.011286   -4.326506    0.900534
H      -1.740802   -0.811754   -1.048347
H      -2.359488    0.300553    1.424366
