22

C      -0.180239    1.717770   -0.021773
C      -0.126075    0.260576    0.451051
C      -1.334037   -0.548688   -0.011378
C      -1.513950   -0.864651   -1.525046
C      -2.059458   -2.264228   -1.132317
C      -1.444423   -2.081706    0.284523
C      -0.123471   -2.812853    0.463417
O      -0.413406   -4.204198    0.517913
H       0.697852    2.279581    0.311629
H      -0.218829    1.777644   -1.114794
H      -1.069497    2.225960    0.367795
H       0.797747   -0.203616    0.082524
H      -0.065967    0.235229    1.547378
H      -2.243865   -0.061828    0.361444
H      -2.167682   -0.209752   -2.106272
H      -0.549910   -0.928671   -2.040956
H      -3.152018   -2.287006   -1.105250
H      -1.709806   -3.127577   -1.702542
H      -2.093430   -2.353966    1.122380
H       0.557626   -2.588047   -0.373570
H       0.373189   -2.475658    1.387250
H       0.417618   -4.680652    0.600985
