25

C      -0.148583    1.564185    0.030108
C      -0.014563    0.034309    0.015240
C       0.644213   -0.470433   -1.278221
C       1.013186   -1.954164   -1.176313
C       2.020869   -2.245619   -0.039293
C       1.981562   -3.747353    0.308703
C       3.458793   -1.880149   -0.470987
C       1.646716   -1.444577    1.190881
C       0.746687   -0.462882    1.221407
H       0.836395    2.043286   -0.000681
H      -0.721845    1.915825   -0.834295
H      -0.659487    1.910014    0.935132
H      -1.034424   -0.381553    0.064106
H      -0.026788   -0.304278   -2.128979
H       1.544448    0.126689   -1.474008
H       0.097656   -2.531696   -0.991792
H       1.420449   -2.315453   -2.128382
H       2.224856   -4.355517   -0.570028
H       2.706698   -3.989989    1.093577
H       0.989496   -4.044873    0.663377
H       3.532753   -0.834310   -0.782329
H       4.164121   -2.027991    0.354015
H       3.783985   -2.511199   -1.306274
H       2.164951   -1.721997    2.108396
H       0.533790    0.035501    2.166088
