14

C      -0.024482    1.461802    0.131709
C      -0.014635   -0.020745   -0.050010
N      -0.077164   -0.608406   -1.167976
C      -0.060922   -2.040720   -1.237087
O      -0.121168   -2.595857   -2.310595
C       0.030389   -2.730673    0.042255
C       0.091913   -2.011573    1.174626
O       0.177281   -2.523478    2.403661
O       0.072799   -0.657385    1.182117
H       0.887354    1.789043    0.641512
H      -0.093403    1.940059   -0.843734
H      -0.873498    1.763577    0.753433
H       0.048109   -3.810295    0.075387
H       0.207728   -1.797641    3.040414
