20

C      -0.045184    1.551909   -0.154552
C      -0.036253    0.017458    0.005697
C       0.751978   -0.458611    1.248171
C       2.241721   -0.107029    1.209404
C       3.030549   -0.858876    2.284049
N       4.147434   -0.212187    2.731248
O       2.703395   -1.951882    2.702493
C      -1.404602   -0.497312    0.051819
C      -2.533331   -0.907253    0.110077
H       0.969805    1.938337   -0.284055
H      -0.634224    1.845896   -1.026972
H      -0.487111    2.027404    0.726764
H       0.452383   -0.411031   -0.882032
H       0.291867   -0.032116    2.147175
H       0.663587   -1.543347    1.343218
H       2.668051   -0.401257    0.239454
H       2.408155    0.971138    1.306696
H       4.456661    0.659960    2.340579
H       4.754509   -0.699198    3.370166
H      -3.526909   -1.278933    0.153659
