17

O      -0.211521   -0.126530   -0.178760
C      -0.171545    1.075172   -0.083741
C       1.096919    1.798925   -0.314954
N       2.076645    2.385381   -0.498298
C      -1.353602    1.957810    0.288371
C      -1.768863    2.880107   -0.898456
C      -2.887342    2.073446   -1.574055
C      -3.589938    1.433591   -0.367931
N      -2.529863    1.165326    0.626516
H      -1.008632    2.575114    1.132518
H      -2.158672    3.818930   -0.494783
H      -0.934072    3.128880   -1.558092
H      -3.547399    2.695813   -2.183424
H      -2.459801    1.298981   -2.220868
H      -4.323613    2.131626    0.056559
H      -4.123995    0.512264   -0.614686
H      -2.275772    0.183468    0.622052
