16

N      -0.176549    1.279438   -0.100242
C      -0.063634    0.031429    0.115892
O      -1.130739   -0.573887    0.706642
C      -1.217574   -1.980542    0.744316
C      -1.632770   -2.751697   -0.526615
O      -0.557109   -3.698493   -0.320258
C       0.062118   -2.837530    0.676836
C       1.220997   -2.089247    0.105978
C       1.128279   -0.786947   -0.170741
H       0.685906    1.640253   -0.505075
H      -1.847962   -2.212690    1.603011
H      -2.612086   -3.238908   -0.525844
H      -1.508356   -2.170165   -1.448774
H       0.334955   -3.410206    1.569948
H       2.124806   -2.649381   -0.116586
H       1.957984   -0.249545   -0.619573
