18

C      -0.045108    1.495802    0.001303
C       0.069967   -0.031284    0.185042
C       0.748448   -0.376999    1.432913
C       1.289966   -0.652909    2.469803
C      -1.316133   -0.668099    0.133219
N      -1.881559   -0.904630   -1.183656
C      -1.591466   -2.072820   -0.318889
C      -0.521104   -2.989284   -0.804681
O      -0.449847   -4.150663   -0.491967
H       0.943642    1.960526    0.005905
H      -0.534710    1.716297   -0.951294
H      -0.632025    1.940450    0.810935
H       0.652828   -0.425884   -0.654986
H       1.778342   -0.907600    3.377773
H      -1.981352   -0.314619    0.920932
H      -2.880993   -0.723734   -1.205772
H      -2.413279   -2.587008    0.173277
H       0.207743   -2.521000   -1.500830
