18

N       0.145488    1.161826    0.118802
C       0.078411   -0.094509    0.039940
C      -0.993182   -0.888301   -0.674897
C      -0.845525   -2.295309   -0.080445
C       0.639979   -2.332321    0.331188
C       1.570660   -2.901326   -0.751142
C       3.035234   -2.822369   -0.365532
O       3.782428   -3.766807   -0.363328
O       0.985395   -0.957938    0.601859
H       0.972983    1.447641    0.645078
H      -1.974489   -0.437246   -0.528115
H      -0.787045   -0.877039   -1.750879
H      -1.475778   -2.403697    0.806694
H      -1.102323   -3.096358   -0.776126
H       0.791140   -2.880402    1.265819
H       1.322184   -3.947176   -0.953659
H       1.431697   -2.325000   -1.676758
H       3.383366   -1.808347   -0.076067
