16

N       0.019182   -3.726418   -0.040713
C       0.027862   -2.564143   -0.018201
C       0.039306   -1.200848    0.009223
C       0.046536    0.009793    0.031615
C       0.057278    1.436360    0.059451
C       0.490240    2.246116    1.274846
C       1.607793    1.528769    2.040299
C       2.478707    1.547686    0.738313
C       1.334952    2.264409    0.011968
H      -0.765157    1.894899   -0.483999
H      -0.177113    3.002171    1.670778
H       2.034545    2.149726    2.829775
H       1.354995    0.550388    2.456601
H       3.362890    2.178595    0.843918
H       2.780050    0.581338    0.326240
H       1.435866    3.037105   -0.740694
