21

C       0.046285    1.529312    0.021247
C       0.017705    0.015295    0.039838
C       0.239154   -0.717943   -1.332267
C      -0.997930   -1.566561   -1.044882
C      -0.950593   -2.103580    0.398664
C       0.398757   -2.150958    1.114583
C       0.856512   -0.665564    1.136752
C      -1.380362   -0.695506    0.120542
O      -2.598953   -0.105394    0.393767
H       1.051729    1.902247   -0.205178
H      -0.640347    1.929335   -0.731496
H      -0.250620    1.943765    0.991779
H       0.079978   -0.044900   -2.179343
H       1.197094   -1.234082   -1.465401
H      -1.638155   -2.045000   -1.776857
H      -1.717411   -2.838082    0.621022
H       0.300544   -2.560373    2.124880
H       1.116409   -2.788010    0.586079
H       1.933057   -0.551905    0.969514
H       0.628582   -0.209101    2.108759
H      -2.733116   -0.108336    1.347926
