18

N       0.182899    0.732978    1.290773
C       0.084506   -0.158178    0.397875
O       1.114271   -0.494499   -0.425423
C       0.828602   -1.471428   -1.443675
C       0.279437   -2.747355   -0.814435
C      -0.998563   -2.434093    0.006154
C      -1.183239   -0.935807    0.175210
C      -2.455637   -0.348321    0.586482
O      -2.059014   -0.309182   -0.791270
H       1.113730    1.155794    1.263837
H       0.121980   -1.047271   -2.166638
H       1.781065   -1.643101   -1.948620
H       0.074966   -3.481827   -1.599216
H       1.053976   -3.173731   -0.169259
H      -1.893984   -2.817667   -0.490060
H      -0.942675   -2.907050    0.992077
H      -3.293368   -1.008942    0.806195
H      -2.446621    0.606500    1.104144
