17

C      -0.018778    1.509063    0.034189
C       0.040057    0.003746    0.026042
C       0.519970   -0.969492   -1.075239
N       0.081482   -1.949915    0.026297
C       0.784538   -0.963499    0.979057
C      -1.147253   -1.005582    0.163832
C      -1.920279   -1.079521    1.384701
C      -2.594145   -1.113373    2.380644
H       0.983659    1.941332   -0.054510
H      -0.622958    1.884495   -0.798798
H      -0.464347    1.873216    0.965841
H      -0.069625   -1.047673   -1.993843
H       1.591595   -1.014654   -1.284615
H       1.874818   -1.005281    0.909186
H       0.445295   -1.036391    2.013740
H      -1.805109   -1.082247   -0.708428
H      -3.185134   -1.154711    3.262147
