19

O      -0.032163    1.434235    0.002459
C       0.019858    0.036720    0.006122
C       0.463798   -0.666514   -1.311333
C      -0.830797   -1.543721   -1.294583
C      -0.657498   -2.985823   -0.837772
O      -0.294197   -2.927664    0.540595
C      -0.715915   -1.693128    1.110555
C       0.453399   -0.684268    1.306836
C      -1.303032   -0.797846   -0.019120
H       0.871443    1.769416    0.026318
H       0.462159    0.046200   -2.139269
H       1.418628   -1.201348   -1.294065
H      -1.452845   -1.453525   -2.185934
H      -1.597282   -3.547200   -0.964347
H       0.133761   -3.522233   -1.373862
H      -1.335313   -1.889830    1.989481
H       1.456214   -1.115926    1.366948
H       0.273134   -0.030748    2.165437
H      -2.303713   -0.381419    0.071638
