23

C      -0.483425    1.489152   -0.145104
C      -0.063665    0.021898   -0.080948
C       1.076474   -0.423752   -1.054669
C       1.369143    0.355955   -2.331231
C       2.103982   -0.412902    0.137494
C       3.006618    0.787942    0.206178
O       4.206186    0.724974    0.322650
C       0.865443   -0.389596    1.108222
C       0.907750    0.430453    2.392344
H       0.360085    2.183149   -0.073961
H      -1.001139    1.702209   -1.086183
H      -1.172350    1.730109    0.671223
H      -0.968165   -0.590260   -0.159607
H       0.913854   -1.473319   -1.320650
H       1.506239    1.426121   -2.152042
H       2.279520   -0.017683   -2.812307
H       0.547954    0.245932   -3.047914
H       2.745524   -1.294044    0.213886
H       2.506389    1.780443    0.142812
H       0.651330   -1.430845    1.370402
H       1.079534    1.495032    2.209814
H      -0.036809    0.339733    2.939744
H       1.706992    0.075173    3.051766
