18

O      -0.157854    1.500859   -0.158509
C       0.023754    0.102325   -0.003225
C      -1.365493   -0.525737    0.051798
C      -1.355183   -2.069452    0.052869
C      -0.709154   -2.668929    1.327479
O      -0.718078   -4.078305    1.327645
C      -2.710621   -2.602105   -0.082740
C      -3.820060   -3.064442   -0.141489
H       0.707340    1.920389   -0.149489
H       0.589506   -0.324577   -0.848528
H       0.590142   -0.121005    0.913737
H      -1.895981   -0.158237    0.937252
H      -1.927202   -0.172164   -0.818311
H      -0.765356   -2.422967   -0.804451
H       0.342406   -2.373153    1.381300
H      -1.221985   -2.253842    2.210381
H      -1.635292   -4.354155    1.208087
H      -4.803605   -3.457129   -0.222746
