18

C       0.431094    1.520932   -0.096880
C      -0.099903    0.096640    0.099433
C       0.401950   -0.866035   -1.001795
O       1.705168   -1.277949   -0.581433
C       1.647815   -1.450583    0.809041
C       0.492789   -0.548141    1.364437
N      -0.147196   -1.779666    1.835856
C       0.789616   -2.658060    1.337126
O       0.862277   -3.855438    1.325853
H       1.522708    1.519463   -0.181606
H       0.025693    1.967090   -1.009990
H       0.157683    2.167292    0.743394
H      -1.194122    0.103893    0.138273
H      -0.262197   -1.736308   -1.098161
H       0.504968   -0.395606   -1.982323
H       2.649429   -1.366841    1.231555
H       0.728321    0.165231    2.158024
H      -1.039283   -1.942446    2.280478
