20

C      -0.012737    1.561644   -0.006876
C       0.126712    0.053736   -0.055329
C       0.721109   -0.762233   -1.194369
C      -0.037825   -1.855991   -1.889234
C       1.935189   -0.028167   -1.788167
C       2.627385   -0.041221   -0.385617
C       1.387227   -0.737287    0.183514
O       1.447040   -1.776398    1.101586
H       0.863987    2.074773   -0.410662
H      -0.882885    1.894309   -0.583962
H      -0.149296    1.910370    1.023291
H      -0.726724   -0.472657    0.371826
H      -0.700976   -1.457410   -2.666919
H       0.643916   -2.567589   -2.369550
H      -0.655427   -2.415363   -1.179294
H       2.471611   -0.637382   -2.520190
H       1.743930    0.953476   -2.232895
H       3.495687   -0.703488   -0.367030
H       2.910875    0.922506    0.051575
H       1.296066   -1.415746    1.981845
