13

C       0.026058   -1.196240    0.123609
C       0.004562    0.001346    0.041197
C      -0.000782    1.456631   -0.066645
C       1.403545    2.017801   -0.010899
N       2.034904    2.045168    1.161921
C       3.261922    2.539513    1.082418
N       3.854477    2.982882   -0.032409
N       3.158688    2.938904   -1.153385
N       1.927835    2.459015   -1.163536
H       0.036600   -2.255691    0.197454
H      -0.458116    1.769586   -1.009756
H      -0.577825    1.889849    0.758608
H       3.850590    2.600039    1.994070
