15

O      -0.030468    0.023560    0.338503
C      -0.051130    1.193157    0.092687
C      -1.281440    2.083511   -0.105741
C      -0.788321    3.525528    0.115802
C       0.746829    3.405938    0.006924
C       1.498195    2.762062    1.126124
N       1.144656    1.984308   -0.071620
C       1.430262    4.326483   -0.870576
N       1.951460    5.097669   -1.555751
H      -1.637463    1.938119   -1.131664
H      -2.081547    1.762921    0.562840
H      -1.167351    4.214853   -0.638886
H      -1.078093    3.917163    1.094149
H       2.559116    2.953103    1.249925
H       0.949509    2.566732    2.044782
