20

C      -0.039666    1.533693    0.006524
C      -0.006391    0.037855   -0.046150
C      -0.157650   -0.745168   -1.130986
C      -0.013027   -2.236869   -0.836070
C       0.140080   -2.243871    0.676461
C       1.317885   -2.614113    1.599785
C       1.345129   -1.124274    2.110769
C       0.173154   -0.829371    1.154044
N      -0.940644   -1.737414    1.538336
H       0.895122    1.931293    0.421183
H      -0.180360    1.970302   -0.985846
H      -0.844844    1.890768    0.660249
H      -0.411568   -0.375151   -2.120397
H      -0.866846   -2.822088   -1.202522
H       0.875621   -2.656911   -1.325875
H       1.108495   -3.386182    2.343985
H       2.221386   -2.878902    1.045426
H       1.140035   -0.963850    3.171626
H       2.265425   -0.604854    1.835122
H      -1.738857   -1.504310    0.950283
