18

N      -0.267618    1.254814   -0.005974
C      -0.070324    0.000951    0.009193
N       1.118848   -0.728820   -0.036682
C       0.813332   -2.084336   -0.002760
N      -0.425142   -2.378837    0.052059
C      -1.150825   -1.089472    0.079160
C      -2.041808   -0.972803    1.296489
C      -3.225645   -0.043246    1.269129
C      -3.437710   -1.536786    1.259500
H       0.607175    1.780072   -0.056639
H       2.043767   -0.333346   -0.056284
H       1.618556   -2.812340   -0.028090
H      -1.777007   -1.024623   -0.819744
H      -1.506077   -1.057088    2.237603
H      -3.458433    0.508684    2.172454
H      -3.409130    0.510224    0.355332
H      -3.769306   -2.002078    0.337277
H      -3.818693   -2.012777    2.155914
