15

C      -0.048678    1.516598   -0.031442
C      -0.014518    0.013623   -0.013538
N      -0.009230   -0.634206   -1.170453
C       0.007249   -1.974705   -1.140099
C       0.022652   -2.665284    0.060092
N       0.027256   -2.038849    1.240646
C       0.004222   -0.706985    1.211213
N      -0.053702   -0.054310    2.426184
H       0.854627    1.950116    0.419794
H      -0.114136    1.864854   -1.062918
H      -0.907108    1.902370    0.531773
H       0.008396   -2.492866   -2.094030
H       0.036545   -3.751998    0.084043
H       0.176512   -0.643350    3.213261
H       0.333485    0.874541    2.472354
