18

C       0.685720    1.071063   -1.306915
C      -0.392598    0.178703   -0.730533
O      -0.920597    0.392239    0.336979
C      -0.754182   -1.057640   -1.559316
C       0.143351   -2.234830   -1.179530
C      -0.055033   -2.806789    0.206393
C       0.713099   -3.072085   -2.246061
O       1.514058   -2.082923   -1.592585
H       1.552805    0.462135   -1.584141
H       0.322120    1.543943   -2.227435
H       0.964746    1.841802   -0.587628
H      -1.796967   -1.314895   -1.352231
H      -0.639823   -0.846945   -2.626536
H      -1.044115   -3.269267    0.291046
H       0.705549   -3.562949    0.414236
H       0.008012   -2.022870    0.965812
H       0.985611   -4.104792   -2.031657
H       0.469777   -2.865601   -3.287695
