21

C      -0.278748    1.502764   -0.259027
C       0.013561    0.034075   -0.021857
N       1.218534   -0.612361   -0.750708
C       2.102162    0.023390    0.331185
C       0.875703   -0.507309    1.148468
C       1.032449   -1.756743    0.260090
N       0.542370   -0.479399    2.537560
C       1.641983   -0.596244    3.494211
C       0.944248    0.702704    3.299585
H       0.552743    2.168337   -0.018120
H      -0.544438    1.662326   -1.309309
H      -1.135661    1.806402    0.351357
H      -0.894926   -0.549563   -0.208747
H       3.058904   -0.491212    0.452950
H       2.254433    1.095898    0.211032
H       0.145724   -2.368212    0.074196
H       1.928100   -2.370439    0.385871
H       1.438419   -1.207184    4.368593
H       2.653505   -0.679942    3.101859
H       1.490187    1.485024    2.776373
H       0.222538    1.057449    4.029317
