17

C      -0.043737   -1.156347   -0.076306
C      -0.008522    0.045053   -0.036106
C       0.039066    1.481916    0.039856
O      -0.429200    2.163283   -1.162725
C       0.825086    2.885066   -1.300413
C       1.345765    2.321972    0.032936
C       0.898086    2.992384    1.350637
C      -0.466843    3.615839    1.254412
C      -0.371754    2.127275    1.392228
H      -0.076489   -2.216848   -0.123165
H       1.380181    2.540820   -2.181024
H       0.674513    3.968251   -1.364373
H       2.322066    1.842913    0.055314
H       1.574085    3.234728    2.160672
H      -0.789605    4.131355    2.153149
H      -0.837154    4.049568    0.332663
H      -0.814247    1.576556    2.212495
