22

C      -0.298547    1.425157   -0.102687
C      -0.335699   -0.105482   -0.023482
C       0.974289   -0.668856    0.539327
C      -1.555484   -0.553930    0.802415
N      -1.754378   -1.997638    0.838271
C      -2.479843   -2.657386   -0.094003
O      -3.041999   -2.108183   -1.032107
C      -2.594773   -4.177930    0.071086
O      -3.363670   -4.708188   -0.965971
H       0.538402    1.765371   -0.720184
H      -1.220282    1.825466   -0.537224
H      -0.176335    1.870339    0.892492
H      -0.479350   -0.501232   -1.036831
H       1.159427   -0.296666    1.554995
H       0.959683   -1.762909    0.576894
H       1.826884   -0.373358   -0.079988
H      -1.460288   -0.198863    1.835609
H      -2.463874   -0.117651    0.379170
H      -1.300639   -2.534137    1.559682
H      -1.582561   -4.614325    0.078927
H      -3.044423   -4.395752    1.053746
H      -3.618059   -3.931777   -1.494787
