19

C       0.636110    1.455760    0.042542
C      -0.046179    0.091317   -0.108891
C       0.484492   -0.740580   -1.310506
C       1.287671   -1.883655   -0.710302
C       2.415773   -1.585289    0.239849
C       1.012871   -1.875594    0.778641
N       0.119032   -0.785517    1.074289
C       0.794604   -3.094026    1.517311
N       0.644410   -4.069352    2.120999
H       1.724865    1.368948    0.117078
H       0.408161    2.092431   -0.818878
H       0.274545    1.973607    0.937904
H      -1.118328    0.279621   -0.245955
H      -0.346680   -1.153107   -1.889207
H       1.079438   -0.123590   -1.991810
H       1.318145   -2.827111   -1.241731
H       3.168544   -2.355461    0.368053
H       2.779209   -0.569481    0.344290
H       0.397420   -0.267575    1.899674
