15

O      -0.442118    0.724911    0.914030
C       0.083343    1.029740   -0.122508
C       1.407212    1.783412   -0.220433
C       1.353398    2.873316   -1.259235
N       1.219668    2.494355   -2.536122
C       1.152915    3.465755   -3.446721
C       1.224343    4.811543   -3.096670
N       1.353885    5.199888   -1.826740
C       1.411583    4.228718   -0.917003
H      -0.360358    0.772192   -1.108022
H       1.670934    2.163350    0.768691
H       2.161276    1.045848   -0.526191
H       1.043560    3.162766   -4.484905
H       1.176533    5.590644   -3.852555
H       1.512792    4.532029    0.122360
