20

C      -0.266847    1.620908   -0.041452
C       0.019252    0.127654   -0.018891
C       1.126442   -0.548821   -0.874788
C       2.411534    0.204983   -0.495001
C       2.373271   -0.275024    0.974335
O       3.161487    0.342254    1.938440
C       2.486892   -1.786259    0.756233
N       1.110003   -1.715555    0.156796
C       0.802268   -0.556902    1.102321
H       0.608748    2.230800    0.198235
H      -0.633374    1.937188   -1.024370
H      -1.042023    1.867605    0.691969
H      -0.909407   -0.434373   -0.163500
H       0.964012   -0.823174   -1.916855
H       3.308193   -0.140587   -1.016330
H       2.335722    1.287968   -0.624946
H       3.094367    1.296719    1.832356
H       3.287961   -2.169167    0.115806
H       2.429286   -2.370689    1.678661
H       0.409747   -0.788742    2.094232
