17

N       0.028335    1.162053   -0.371715
C       0.034932   -0.105082    0.083300
O       1.001238   -0.723509    0.494386
C      -1.378679   -0.727463    0.026537
O      -2.340219   -0.101543   -0.399277
N      -1.384630   -1.988164    0.488025
C      -2.561474   -2.829886    0.523559
C      -2.274711   -4.188421   -0.099329
O      -1.227568   -4.776852    0.660012
H       0.876912    1.700425   -0.395398
H      -0.851528    1.544817   -0.681621
H      -0.494591   -2.362594    0.790145
H      -2.890900   -2.977322    1.560252
H      -3.356131   -2.311256   -0.017721
H      -3.188904   -4.800955   -0.071451
H      -1.981677   -4.056753   -1.151138
H      -0.907522   -5.554686    0.194839
