15

C      -0.279669    1.493674    0.074383
C       0.107008    0.038217   -0.020426
O       1.357734   -0.161011   -0.778293
C       2.000859   -0.727101    0.280532
O       3.125352   -1.098710    0.358355
C       0.763226   -0.627583    1.227232
O       0.925267    0.279833    2.291664
C       0.213009   -1.907399    1.640766
C      -0.214916   -2.973156    1.995074
H       0.514579    2.080542    0.538093
H      -0.482216    1.887479   -0.925510
H      -1.185430    1.597796    0.678956
H      -0.677031   -0.575335   -0.468181
H       1.452931   -0.154886    2.971648
H      -0.594689   -3.915466    2.306652
