20

C      -0.091802    1.577610   -0.058412
C       1.424427    1.727886    0.171665
C       2.208209    1.285510   -1.061654
C       3.590376    0.634768   -0.865807
N       3.391047   -0.519777    0.043250
C       3.103564   -0.666983   -1.404840
C       1.701194   -0.088306   -1.645747
C       0.494379   -0.618189   -0.879994
O      -0.480275    0.415190   -0.791106
H      -0.608041    1.581957    0.913666
H      -0.472458    2.433144   -0.631220
H       1.635875    2.768049    0.442759
H       1.735138    1.105120    1.014836
H       2.230265    2.058379   -1.834184
H       4.563315    1.104474   -0.949590
H       4.307710   -0.932678    0.210097
H       3.621620   -1.414933   -1.993301
H       1.474018   -0.004812   -2.711146
H      -0.000452   -1.442036   -1.403237
H       0.799734   -0.979400    0.110915
