15

O       0.088723    1.359537   -0.001836
C       0.072445    0.011635    0.059924
N       0.078147   -0.731294   -1.043624
N       0.057374   -2.025040   -0.592687
C       0.039500   -2.079559    0.750453
C       0.048297   -0.781351    1.226203
C       0.028805   -0.833497    2.685117
C       0.008928   -2.123972    3.074754
C       0.013489   -3.070750    1.875077
H       0.103501    1.596693   -0.937856
H       0.057785   -2.767984   -1.268678
H       0.030228    0.026536    3.341191
H      -0.008386   -2.485950    4.093873
H      -0.874249   -3.716243    1.860517
H       0.886142   -3.736604    1.883312
