19

O      -0.126883    1.380752   -0.024530
C      -0.056387   -0.004878    0.016215
C       0.358094   -0.812567    1.288952
C      -0.427672   -1.938143    0.561982
C      -1.371490   -0.817862    0.036589
C       0.462324   -2.214957   -0.666394
C       0.775784   -0.730953   -1.089601
C       0.396772   -0.383306   -2.448464
C       0.081763   -0.094155   -3.572653
H       0.731618    1.732356   -0.282819
H       1.422996   -0.967884    1.491422
H      -0.152307   -0.439695    2.178941
H      -0.814348   -2.802338    1.099141
H      -2.057980   -0.450464    0.801856
H      -1.893795   -0.970387   -0.911052
H       1.371881   -2.767841   -0.416434
H      -0.063642   -2.753992   -1.457284
H       1.841331   -0.506838   -0.949968
H      -0.197390    0.163574   -4.564099
