23

C       1.040225   -0.507116   -0.964902
C       0.006097    0.098899   -0.005375
C      -0.105610    1.614046   -0.240405
C      -1.379470   -0.541818   -0.075528
C      -1.903650   -1.289971   -1.286411
C      -1.631021   -2.017732   -0.004638
C      -0.683945   -3.185993    0.267181
O      -1.695883   -3.851139    1.053480
C      -2.629883   -2.764207    0.875081
H       2.024582   -0.063878   -0.784101
H       1.143913   -1.589729   -0.848414
H       0.777971   -0.304918   -2.008961
H       0.376702   -0.049695    1.019619
H       0.870628    2.100795   -0.145961
H      -0.490219    1.823885   -1.245054
H      -0.784420    2.080733    0.480963
H      -2.132310    0.048750    0.445651
H      -2.937620   -1.139463   -1.582117
H      -1.227797   -1.466690   -2.116823
H      -0.381714   -3.780636   -0.605277
H       0.205803   -2.956257    0.868827
H      -2.883322   -2.281008    1.829219
H      -3.555228   -3.093406    0.383352
