15

O       0.187957    1.321568   -0.353442
C      -0.001124   -0.034477   -0.059832
C       0.532926   -0.407015    1.334864
O       1.502456    0.120995    1.831760
C      -0.394509   -1.401644    1.909827
C      -1.512653   -1.437475    1.165413
C      -1.451017   -0.500095    0.013897
C      -2.589111    0.310393   -0.445478
O      -2.160536   -0.839602   -1.177591
H       0.945477    1.601765    0.181405
H       0.510318   -0.680255   -0.795108
H      -0.195932   -1.950103    2.821280
H      -2.385237   -2.056489    1.341662
H      -3.556217    0.219618    0.046903
H      -2.370262    1.271460   -0.904758
