19

C      -0.046765    1.562855    0.026563
C       0.022416    0.035677    0.168277
C       0.787875   -0.360666    1.438689
C      -1.402643   -0.541950    0.132572
C      -1.469270   -2.098104    0.129008
C      -2.864065   -2.558722    0.162101
N      -3.969303   -2.887922    0.214819
C      -0.763388   -2.672025   -1.026157
N      -0.180989   -3.096871   -1.928028
H       0.957766    1.995778    0.006552
H      -0.557764    1.856926   -0.895673
H      -0.586358    2.013249    0.868003
H       0.567410   -0.359202   -0.699107
H       0.258529   -0.025578    2.338805
H       0.940587   -1.441950    1.518722
H       1.779665    0.100923    1.447021
H      -1.970393   -0.200544    1.005389
H      -1.931269   -0.181364   -0.755040
H      -0.979809   -2.480000    1.033166
