16

C       0.041987    1.443882    0.010645
N       0.061910   -0.007264    0.013424
C      -1.050385   -0.622672    0.026608
N      -2.326321   -0.105363    0.077448
C      -1.014671   -2.130185    0.074286
C      -1.798987   -2.865173    1.096214
O      -2.238626   -2.803034   -0.258735
C       0.190928   -2.753332   -0.440680
N       1.120119   -3.305515   -0.846357
H       1.064177    1.819736   -0.069100
H      -0.529018    1.855952   -0.837877
H      -0.396239    1.852565    0.933556
H      -2.433367    0.869281   -0.153702
H      -3.054988   -0.713264   -0.268425
H      -1.447268   -3.838863    1.428068
H      -2.382832   -2.285491    1.806940
