22

C      -0.023581    1.024069   -1.259691
C       0.109401    0.248877    0.062586
C       0.292115    1.208912    1.246561
C      -1.142442   -0.614313    0.238909
C      -1.367002   -2.072988    0.151958
C      -0.411890   -3.025410    0.897862
C       0.682229   -2.350080    1.687822
C      -0.739323   -2.243985    2.148758
N      -1.702347   -1.322721    1.427573
H       0.876363    1.616181   -1.453376
H      -0.169841    0.344667   -2.105803
H      -0.876876    1.711607   -1.228757
H       0.999048   -0.375316   -0.036987
H       0.435818    0.667219    2.185483
H       1.158318    1.859953    1.089002
H      -0.590478    1.847157    1.365728
H      -2.000166   -0.083289   -0.181690
H      -2.169109   -2.490427   -0.452030
H      -0.431283   -4.094751    0.735903
H       1.252862   -3.058273    2.284045
H       1.272519   -1.518584    1.337769
H      -1.066317   -2.581054    3.124208
