18

O       0.055977    1.458567    0.007826
C      -0.013523    0.047296    0.003918
C       0.660603   -0.527100    1.266829
O       1.033257    0.452027    2.241935
C      -0.108722   -0.394901    2.509733
C      -1.492266    0.226810    2.379213
N      -2.219643   -0.389083    1.250292
C      -2.602830    0.472769    0.128671
C      -1.459172   -0.461596   -0.007284
H       0.542993    1.700912    0.809892
H       0.498278   -0.335952   -0.888230
H       1.371181   -1.339650    1.136705
H       0.062438   -1.093432    3.324939
H      -2.075361    0.048159    3.287230
H      -1.377429    1.311973    2.265174
H      -3.560209    0.241618   -0.330954
H      -2.353627    1.528604    0.188363
H      -1.592174   -1.398398   -0.546303
