21

C      -0.111363    1.273948   -0.383709
O      -0.276435    0.228446    0.554086
C      -1.395796   -0.559372    0.308958
C      -1.331415   -1.650203   -0.752709
C      -1.322129   -2.006856    0.703141
C      -0.117188   -2.564604    1.464023
C      -0.776840   -3.382865    2.601725
C      -2.228316   -2.880996    2.581664
O      -2.493640   -2.600052    1.211363
H       0.800426    1.810884   -0.111295
H      -0.011410    0.887330   -1.407883
H      -0.958802    1.975303   -0.359976
H      -2.356018   -0.058568    0.441362
H      -2.232304   -1.861084   -1.318663
H      -0.399095   -1.766520   -1.296165
H       0.512545   -3.191731    0.827923
H       0.501726   -1.748140    1.842015
H      -0.751144   -4.451379    2.370254
H      -0.293903   -3.235936    3.570689
H      -2.962452   -3.615687    2.920934
H      -2.336175   -1.968910    3.190087
