20

C      -0.068410    1.555534   -0.047723
C       0.069487    0.052116    0.033376
O      -1.074331   -0.630121   -0.424646
C       1.359218   -0.701552   -0.227795
C       2.561463   -0.017194    0.378619
N       3.134414   -0.781949    1.489414
C       1.911153   -0.016872    1.747996
C       1.925556    0.991440    2.860546
C       0.690668   -0.711008    1.172391
H       0.820371    2.070848    0.319642
H      -0.222620    1.864167   -1.089793
H      -0.935084    1.888215    0.532375
H      -1.209981   -0.388929   -1.347701
H       1.378285   -1.517871   -0.942005
H       3.183691    0.742602   -0.080981
H       2.954183   -1.779126    1.389090
H       2.905731    1.469876    2.928633
H       1.163130    1.762747    2.715207
H       1.725747    0.504565    3.822440
H       0.139770   -1.525077    1.631159
