19

C       0.062163    1.436510   -0.148407
C      -0.008456   -0.047559    0.017264
O       0.538216   -0.901517   -1.048841
C       0.038279   -1.852348   -0.043515
C       0.185245   -3.316278   -0.308484
C       0.607228   -0.973242    1.133821
C      -0.388028   -1.037249    2.269461
C      -1.583342   -1.047872    1.665021
C      -1.259476   -0.989794    0.189876
H       1.102663    1.761879   -0.244158
H      -0.481250    1.747710   -1.045919
H      -0.382288    1.930759    0.720908
H       1.240937   -3.579955   -0.425360
H      -0.230360   -3.890174    0.525449
H      -0.343978   -3.594390   -1.225135
H       1.682797   -0.951212    1.307073
H      -0.157651   -1.066834    3.325441
H      -2.569887   -1.088265    2.105633
H      -2.036727   -0.984217   -0.573798
