20

C       0.097891    1.517982   -0.212385
C       0.014624    0.019425    0.077474
O       0.601923   -0.311354    1.328277
C      -1.433116   -0.505817    0.025119
C      -1.533622   -2.043741    0.186380
O      -2.450122   -2.223052    1.290980
C      -2.700450   -0.980013    1.772860
C      -3.567383   -0.939441    2.984958
N      -2.203183    0.023701    1.166270
H       1.131519    1.859487   -0.113400
H      -0.246881    1.742444   -1.227591
H      -0.528560    2.077516    0.488817
H       0.604683   -0.527781   -0.668956
H       0.029085    0.081741    1.999745
H      -1.897823   -0.164847   -0.908482
H      -1.944936   -2.557614   -0.685058
H      -0.575613   -2.492368    0.464696
H      -4.534120   -1.405355    2.770089
H      -3.107608   -1.508325    3.798902
H      -3.720184    0.093314    3.295790
