21

C       0.314089    1.164941   -0.048932
C       0.105035   -0.326965    0.114014
O       1.047571   -1.096626    0.126368
C      -1.333682   -0.803182    0.223888
C      -1.919559   -0.991358   -1.221218
C      -2.455336   -2.441955   -1.270044
C      -1.585438   -3.195163   -0.260168
C      -1.480927   -2.203884    0.911642
O      -0.515606   -2.508332    1.886365
H       1.356588    1.376162   -0.289742
H      -0.344220    1.571399   -0.824047
H       0.048377    1.669141    0.888064
H      -1.904520   -0.043483    0.766241
H      -2.688868   -0.249879   -1.449461
H      -1.128269   -0.867477   -1.968487
H      -3.503538   -2.465692   -0.949038
H      -2.418348   -2.860453   -2.279142
H      -1.998109   -4.158770    0.049086
H      -0.582932   -3.370786   -0.669181
H      -2.438774   -2.201462    1.446664
H       0.342832   -2.406471    1.451393
