14

O      -0.799181    0.816896    0.106845
C      -0.128122   -0.385186   -0.152691
C       1.053077   -0.132999   -1.069051
O       1.326734    0.979819   -1.450778
C       0.375476   -1.041227    1.137848
C       0.975924   -0.196730    2.198741
N      -0.355773   -0.803173    2.380786
H      -0.298600    1.501954   -0.366419
H      -0.805234   -1.095004   -0.659082
H       1.661297   -1.014936   -1.351891
H       0.724285   -2.063597    1.006008
H       1.758566   -0.596797    2.836071
H       1.025164    0.872739    2.015136
H      -1.057545   -0.086471    2.201121
