20

C       0.012240    1.484691    0.015711
C       1.311792    0.760015    0.052230
C       2.200365    0.718107    1.278713
C       2.882251   -0.650802    1.417803
C       1.967172   -1.833851    1.673514
O       1.162058   -1.834106    2.854486
C       0.493784   -1.849640    1.583422
C      -0.359830   -0.629682    1.263307
N       0.044162    0.020238    0.016791
H      -0.306715    1.982748    0.930735
H      -0.338216    1.953724   -0.899745
H       1.864300    0.677839   -0.884494
H       2.969665    1.493735    1.188629
H       1.638395    0.947886    2.187811
H       3.441295   -0.867948    0.497657
H       3.625384   -0.621415    2.224958
H       2.461271   -2.793250    1.499371
H       0.035715   -2.811036    1.348177
H      -1.404909   -0.937306    1.147023
H      -0.323082    0.037707    2.136518
