16

C       0.000719    1.569098    0.006624
C       0.000816    0.039785   -0.056286
C      -1.386507   -0.567025    0.081362
C      -1.433168   -2.104487    0.048809
O      -2.358177   -2.441647    1.083521
C      -2.562048   -1.363825    1.886108
O      -3.195522   -1.379644    2.891724
O      -1.941039   -0.270635    1.376037
H       1.016633    1.961972   -0.088507
H      -0.601700    1.998540   -0.801089
H      -0.412792    1.917380    0.956647
H       0.419911   -0.301214   -1.012170
H       0.637679   -0.374849    0.734525
H      -2.064058   -0.138945   -0.668866
H      -1.797992   -2.506800   -0.898043
H      -0.458353   -2.550072    0.279583
