20

C      -0.059707    1.488217    0.046727
C       0.376635    0.035843   -0.027693
O       0.188360   -0.423565   -1.361597
C       0.508622   -1.770550   -1.515727
C       0.748394   -2.462498   -2.811420
C       1.774510   -1.791338   -3.740980
C       2.357902   -0.522472   -3.259907
N       2.853236   -1.807577   -2.698882
C       1.855319   -2.410234   -1.736588
H       0.545051    2.110106   -0.619629
H      -1.108011    1.590189   -0.247635
H       0.053603    1.865845    1.067309
H       1.432243   -0.075333    0.262294
H      -0.218330   -0.583882    0.663061
H      -0.079018   -2.410352   -0.847715
H       0.141419   -3.297225   -3.138999
H       1.969854   -2.192087   -4.730560
H       3.110285   -0.068868   -3.900133
H       1.776873    0.157863   -2.656655
H       2.240583   -3.186067   -1.084971
