16

C      -0.728092    1.262846   -0.941160
N      -0.821508   -0.100111   -0.454830
C      -0.320795   -0.481930    0.742952
O       0.238160    0.245061    1.545559
C      -0.506134   -1.956400    1.076829
C      -1.580212   -2.283280    2.132040
C      -2.255599   -3.025561    0.980725
O      -3.234609   -3.663918    0.784080
O      -1.259883   -2.717014    0.069607
H      -1.721440    1.681212   -1.134441
H      -0.233950    1.853907   -0.169127
H      -0.140027    1.314398   -1.863657
H      -1.246011   -0.812736   -1.027900
H       0.469842   -2.413705    1.247884
H      -1.267069   -2.926054    2.955537
H      -2.140486   -1.432900    2.522606
