15

C      -0.023699    1.546372    0.015301
C       0.091248    0.040658    0.089675
C       1.352531   -0.735834   -0.141836
O       2.486648    0.003262    0.397618
C       1.971954   -0.117738    1.688546
N       2.491188    0.116625    2.804185
C       0.692024   -0.750658    1.240494
O      -0.064291   -1.644790    1.948886
H       0.906850    2.027854    0.323527
H      -0.243130    1.862823   -1.009629
H      -0.829629    1.906714    0.661522
H      -0.773225   -0.508211   -0.284651
H       1.564931   -1.492870   -0.883757
H       3.437480    0.488443    2.707028
H       0.531260   -2.188781    2.478585
