21

C      -0.112019    1.570121    0.059179
C      -0.077253    0.048423   -0.108132
C      -1.439748   -0.606711    0.066787
C      -1.473482   -2.132440   -0.067562
C      -2.746714   -2.507807    0.709751
C      -2.916895   -1.323504    1.716052
O      -1.894195   -0.374565    1.403008
C      -4.249677   -0.718431    1.653469
C      -5.346090   -0.228190    1.600321
H       0.886596    2.002091   -0.056645
H      -0.765636    2.035157   -0.687156
H      -0.490829    1.839007    1.048444
H       0.301086   -0.214000   -1.104139
H       0.611633   -0.394799    0.621526
H      -2.155568   -0.158595   -0.644955
H      -1.498628   -2.468503   -1.107301
H      -0.583106   -2.558233    0.407841
H      -3.612594   -2.560601    0.046512
H      -2.665891   -3.464245    1.229800
H      -2.729521   -1.651660    2.745139
H      -6.312340    0.210591    1.560872
