15

C       0.058096    1.487257   -0.124550
C       0.001559    0.002046    0.009005
O       0.605211   -0.843464   -1.034830
C       0.044126   -1.803002   -0.085363
C       0.559480   -0.957683    1.104758
O      -0.344598   -1.032772    2.204414
C      -1.583558   -1.033578    1.589033
O      -2.617507   -1.081286    2.179673
C      -1.250583   -0.954356    0.116273
H       1.097678    1.817801   -0.207531
H      -0.484875    1.816345   -1.015036
H      -0.390681    1.960654    0.753987
H       0.139285   -2.865893   -0.301131
H       1.600073   -0.951653    1.416592
H      -2.050554   -0.937703   -0.617452
