19

C      -0.035771    1.531945   -0.089189
C       1.492049    1.550609    0.062688
O       2.035616    0.774415   -1.026844
C       1.565352    0.081194    0.124928
C       2.373972   -0.934277    0.861769
C       1.553614   -1.405895    2.081022
C       0.091005   -1.658993    1.695965
O      -0.541303   -0.477551    1.216235
C       0.030652   -0.024724    0.004581
H      -0.570331    1.938139    0.771474
H      -0.419066    1.961062   -1.017153
H       2.137947    2.311771    0.485590
H       2.560970   -1.786356    0.193570
H       3.350466   -0.535410    1.154532
H       1.987181   -2.318480    2.504140
H       1.574363   -0.638614    2.863299
H       0.029198   -2.460939    0.940476
H      -0.490060   -1.975659    2.566522
H      -0.344735   -0.598852   -0.854345
