20

C       0.033012    1.486016   -0.202857
C      -0.128163   -0.014812    0.071300
C       0.683966   -0.523659    1.267547
C       0.252388    0.090019    2.604991
C       0.873044   -2.058492    1.374238
N       1.531157   -2.494409    0.141674
C       2.370024   -1.960813    1.274658
C       2.249602   -0.457607    1.170580
O       3.031394    0.448919    1.198917
H       1.087195    1.753771   -0.318958
H      -0.491896    1.764075   -1.121825
H      -0.377573    2.097753    0.606460
H      -1.187916   -0.247687    0.246729
H       0.176514   -0.584144   -0.811443
H      -0.820085   -0.065163    2.767919
H       0.791532   -0.360508    3.445331
H       0.451209    1.164068    2.622696
H       0.299191   -2.737480    1.993016
H       1.634490   -3.508880    0.177202
H       3.157105   -2.565018    1.707881
