17

C      -0.008872    1.537477   -0.023870
C      -0.021173    0.005680    0.060694
C      -1.410172   -0.557414   -0.015059
C      -1.906692   -2.043970    0.046564
C      -3.207421   -1.183968    0.037707
N      -2.533476   -0.179149    0.971405
C      -2.518227   -0.382483   -1.082177
O      -2.702595    0.067275   -2.166017
H       1.011794    1.922710    0.051220
H      -0.433815    1.876228   -0.973202
H      -0.603807    1.974496    0.782727
H       0.565731   -0.424963   -0.760259
H       0.457643   -0.329976    0.989775
H      -1.697636   -2.714593   -0.793504
H      -1.711858   -2.524646    1.010308
H      -4.241054   -1.496089    0.167981
H      -2.335903   -0.673929    1.848866
