25

C       0.130239    1.623050    0.019304
C       0.008727    0.096133    0.011068
C       0.618721   -0.538082   -1.245286
C       0.615335   -2.079135   -1.277040
C      -0.811103   -2.649232   -1.300444
C       1.452412   -2.574244   -2.471311
C       1.715734   -4.095314   -2.480482
C       2.581321   -4.509012   -3.578362
C       3.295732   -4.823441   -4.492733
H       1.178903    1.937470   -0.027091
H      -0.383794    2.065451   -0.841363
H      -0.307127    2.054339    0.925209
H       0.505387   -0.315084    0.900331
H      -1.048601   -0.179673    0.097909
H       0.093122   -0.160236   -2.134607
H       1.656324   -0.190193   -1.340099
H       1.107927   -2.430712   -0.357082
H      -0.815356   -3.743095   -1.285468
H      -1.392727   -2.316704   -0.436416
H      -1.342026   -2.326493   -2.204468
H       0.959363   -2.293281   -3.410650
H       2.421261   -2.062005   -2.468845
H       2.172306   -4.390335   -1.525904
H       0.769448   -4.645039   -2.546294
H       3.925948   -5.113446   -5.296257
