17

C      -0.037567    1.589666   -0.045855
C       0.143100    0.076451    0.044104
C       1.290206   -0.877178   -0.313642
N       2.720220   -0.581018    0.089776
C       2.829744    0.745583    0.724570
C       2.221450   -0.364868    1.492991
C       0.781222   -0.780179    1.098606
O       0.112632   -1.742370    1.833519
H       0.448980    2.014177   -0.930246
H      -1.103854    1.824828   -0.123106
H       0.341720    2.112517    0.835645
H      -0.752049   -0.452179   -0.286388
H       1.157954   -1.641901   -1.068493
H       3.861692    0.985717    0.971256
H       2.259569    1.582704    0.352756
H       2.720484   -0.848998    2.326916
H      -0.444608   -1.295832    2.481029
