25

C       0.075426    1.610444    0.034092
C      -0.011965    0.076278    0.010654
C       0.642743   -0.472480   -1.275992
C       0.134022   -1.834274   -1.787127
C      -0.158275   -2.912249   -0.725289
C       0.803484   -2.953728    0.473185
C       0.424591   -1.971280    1.591767
O       1.189448   -2.217440    2.770809
C       0.648974   -0.490515    1.280591
H       1.120695    1.941991    0.013423
H      -0.428150    2.048729   -0.833786
H      -0.385074    2.024284    0.937030
H      -1.078236   -0.193907    0.011405
H       0.509100    0.253975   -2.086493
H       1.726518   -0.522564   -1.107003
H      -0.782052   -1.679713   -2.370749
H       0.874414   -2.221879   -2.497845
H      -1.177140   -2.779656   -0.338087
H      -0.162619   -3.887779   -1.223920
H       0.778938   -3.962641    0.908100
H       1.841647   -2.781374    0.163069
H      -0.648928   -2.119879    1.808205
H       1.066440   -3.140224    3.015031
H       1.733121   -0.322430    1.221792
H       0.302772    0.070862    2.156041
