19

C       0.026808    1.625189    0.140648
C       1.570758    1.569600   -0.097563
C       1.485721    0.062087    0.006964
C       2.351508   -0.949831    0.132695
C       1.968424   -2.326227    0.365330
C       0.820365   -2.761112    0.942058
C      -0.257285   -1.958537    1.488627
C      -0.621246   -0.708923    1.148356
C      -0.034538    0.066853    0.006015
H      -0.234388    1.963830    1.146492
H      -0.550570    2.198661   -0.586756
H       1.849667    1.909286   -1.102261
H       2.209720    2.090435    0.621902
H       3.418497   -0.739827    0.076501
H       2.719072   -3.076548    0.126941
H       0.733704   -3.831554    1.115115
H      -0.825111   -2.440151    2.283285
H      -1.403704   -0.218104    1.724830
H      -0.464105   -0.250759   -0.955264
