18

C      -0.764986    1.217455    0.388718
C      -0.232022   -0.199843    0.206639
C       0.739671   -0.371735   -0.998038
C       1.948754   -0.369425   -0.025932
C       0.978066   -0.611714    1.152240
C       1.167869    0.200280    2.397844
O       1.930024    1.127362    2.524441
C       0.285207   -0.186061    3.525889
N      -0.413684   -0.503410    4.391072
H       0.042544    1.956990    0.400704
H      -1.435943    1.470077   -0.438780
H      -1.331654    1.322564    1.319772
H      -1.058394   -0.913419    0.239771
H       0.609607   -1.332768   -1.501734
H       0.710778    0.420943   -1.749640
H       2.718933   -1.127224   -0.179296
H       2.429851    0.606718    0.059083
H       0.885359   -1.666543    1.427520
