17

C       0.171005    1.667626   -0.031443
C      -0.090657    0.150374   -0.009777
C       0.528121   -0.579687   -1.195672
O      -0.081414   -0.063099   -2.380732
C       0.376717   -0.553791   -3.548601
N      -0.117736   -0.152031   -4.637788
C       0.384956   -0.444533    1.298530
O       1.158862   -1.363401    1.396556
H       1.244771    1.879948    0.008956
H      -0.229745    2.099464   -0.950089
H      -0.305166    2.161792    0.820887
H      -1.180710   -0.000616   -0.040309
H       1.613068   -0.415445   -1.219956
H       0.353722   -1.658423   -1.113683
H       1.179405   -1.294853   -3.429090
H       0.338698   -0.618624   -5.418770
H      -0.037664    0.048937    2.203615
