14

O      -0.858029    1.146007   -0.210257
C       0.261332    0.915107    0.185414
C       1.398929    1.851588    0.050972
C       1.114230    3.345245   -0.042186
C       1.663271    2.689583   -1.255760
N       3.095646    2.650686   -1.344679
C       3.562250    1.886435   -0.288235
N       2.683359    1.422934    0.524948
H       0.529952   -0.044093    0.676690
H       0.057639    3.586629   -0.067637
H       1.754171    4.007860    0.530665
H       1.084393    2.585466   -2.165217
H       3.550471    2.610399   -2.243602
H       4.629872    1.730748   -0.174920
