22

C      -0.004976    1.579305    0.003568
C      -0.005479    0.044266   -0.007489
C       0.655740   -0.470755   -1.298303
C       0.641495   -1.989430   -1.514458
C       1.378085   -2.794951   -0.434263
N       0.657221   -2.913151    0.823616
C       0.269862   -1.907348    1.665172
O      -0.376755   -2.140215    2.671746
C       0.677438   -0.491904    1.274089
H       1.019073    1.971293    0.023661
H      -0.496965    1.981090   -0.888392
H      -0.527688    1.969172    0.882327
H      -1.051473   -0.292632    0.004536
H       0.165119    0.006441   -2.155439
H       1.698776   -0.120712   -1.314578
H      -0.390604   -2.355822   -1.579687
H       1.114702   -2.205285   -2.480378
H       1.544068   -3.814626   -0.792216
H       2.374954   -2.361532   -0.267467
H       0.338350   -3.825973    1.110943
H       1.768262   -0.428907    1.158711
H       0.402616    0.128071    2.129577
