16

C      -0.011116    1.454821    0.009889
C       0.008822   -0.061550    0.001866
O      -1.355614   -0.507171    0.011409
C      -1.579840   -1.823676    0.005834
C      -2.752650   -2.515133    0.010093
C      -2.372426   -3.900307    0.000496
C      -1.018740   -3.940299   -0.008744
O      -0.513903   -2.658038   -0.005558
H       1.012950    1.839624    0.003061
H      -0.532721    1.839904   -0.870484
H      -0.517428    1.830705    0.903073
H       0.513922   -0.451781   -0.889533
H       0.529291   -0.460918    0.880269
H      -3.742821   -2.092562    0.018820
H      -3.034748   -4.752112    0.000536
H      -0.282847   -4.724999   -0.017770
