20

C      -0.019062    1.503402   -0.181629
O       0.029419    0.102607   -0.026905
C      -1.235561   -0.507511   -0.153460
C      -1.154335   -2.007779    0.040586
C       0.144386   -2.734807    0.006102
N      -0.631205   -2.648046    1.245130
C      -0.108065   -1.837682    2.334916
C       0.631132   -2.723272    3.324797
O       1.436823   -2.317694    4.121163
H       1.000762    1.878385   -0.071937
H      -0.399839    1.786733   -1.174889
H      -0.658025    1.975610    0.580298
H      -1.944198   -0.071743    0.573550
H      -1.654570   -0.313838   -1.156091
H      -2.038606   -2.508844   -0.352531
H       0.213509   -3.722628   -0.441318
H       1.036491   -2.119844   -0.077717
H       0.541051   -1.007365    2.030684
H      -0.957509   -1.401386    2.882029
H       0.347290   -3.797891    3.262874
