13

N      -0.127807    1.399686    0.055243
C      -0.036298    0.060805    0.002465
O       0.997141   -0.591228   -0.022781
C      -1.393030   -0.637477   -0.026362
N      -2.467169    0.039084   -0.001065
N      -1.220405   -2.017384   -0.080089
C      -2.216765   -2.957170   -0.117783
O      -3.403422   -2.713927   -0.109381
H       0.706822    1.959517    0.078477
H      -1.046377    1.816231    0.071553
H      -3.286159   -0.570397   -0.025743
H      -0.244384   -2.296932   -0.089724
H      -1.811844   -3.984920   -0.157119
