20

C       0.028310    1.546025   -0.038991
C       0.025068    0.039129   -0.029557
C       0.565487   -0.961510   -1.060150
N       0.015207   -1.916578    0.000548
C       0.608320   -0.934690    1.051522
C      -0.336168   -0.984092    2.228556
C      -1.531987   -0.985256    1.641096
C      -1.206734   -0.938706    0.156233
C      -2.349163   -1.056199   -0.823999
H       1.048595    1.939060   -0.107628
H      -0.537851    1.937234   -0.891602
H      -0.425854    1.935801    0.878810
H       0.077185   -1.038906   -2.034214
H       1.651632   -1.029611   -1.176531
H       1.686353   -1.014644    1.200465
H      -0.068433   -1.030236    3.274282
H      -2.523300   -1.034201    2.070352
H      -3.082106   -0.261603   -0.646800
H      -2.026623   -0.984964   -1.865514
H      -2.858478   -2.017091   -0.696206
