20

C      -0.298007    1.462968    0.049889
C       0.099635   -0.010509    0.061367
C       0.934503   -0.475252   -1.153593
C       1.519555   -1.836800   -0.723287
C       1.558086   -1.753521    0.786031
N       2.006944   -2.593515    1.629521
O       2.557418   -3.717066    0.989109
C       0.965407   -0.440073    1.260436
O       2.002547    0.528196    1.431262
H       0.587900    2.102189    0.061223
H      -0.883016    1.697584   -0.845489
H      -0.907610    1.718006    0.923092
H      -0.808566   -0.628556    0.103924
H       0.340949   -0.537997   -2.069348
H       1.741830    0.242744   -1.329639
H       0.873602   -2.673828   -1.016854
H       2.506278   -2.054215   -1.141937
H       2.832616   -4.263387    1.733198
H       0.390692   -0.556547    2.187893
H       2.651115    0.141191    2.029061
