22

C       0.081532    1.591578    0.098744
C       0.002032    0.069731    0.011986
C       0.616090   -0.456585   -1.297643
C       0.178809   -1.863768   -1.760612
C      -0.154734   -2.888374   -0.657378
C       0.747603   -2.856917    0.585660
C       0.401736   -1.732431    1.569435
O       0.717075   -0.424611    1.143118
H       1.120916    1.922874    0.003890
H      -0.503987    2.058188   -0.698980
H      -0.299007    1.937047    1.063349
H      -1.055188   -0.236799    0.088863
H       0.401875    0.253805   -2.104752
H       1.701549   -0.428178   -1.147508
H      -0.700206   -1.774637   -2.410417
H       0.973871   -2.269609   -2.397717
H      -1.191629   -2.744969   -0.325170
H      -0.127615   -3.888707   -1.104795
H       0.635660   -3.802946    1.131229
H       1.805356   -2.782667    0.303484
H      -0.671859   -1.800685    1.821842
H       0.964612   -1.870309    2.499034
