18

O      -0.057243    1.419372    0.062989
C      -0.002830    0.026018    0.059319
C      -0.403901   -0.750833   -1.175613
C      -1.273798   -0.790895    0.074082
C      -1.051497   -1.919821    1.050820
C      -2.149218   -2.450885    1.905638
N      -1.587151   -3.282864    0.831107
C       0.361908   -1.776198    1.512557
C       0.932065   -0.686973    0.992608
H       0.623366    1.745920   -0.535089
H      -0.807247   -0.168791   -1.998471
H       0.168954   -1.627844   -1.458114
H      -2.235901   -0.294344    0.032318
H      -1.935697   -2.796925    2.913515
H      -3.138531   -2.017528    1.776232
H      -2.205466   -3.270164    0.022940
H       0.831875   -2.511302    2.154353
H       1.946145   -0.346609    1.168992
