20

C       0.009746    1.560207   -0.046065
C      -0.021899    0.031939    0.012926
C       0.676291   -0.545810    1.242539
C       0.637804   -2.077701    1.289218
O       1.301253   -2.648334    0.181287
O       2.056357   -0.129398    1.184170
C       2.670267    0.014081    2.443255
C       4.076086    0.382194    2.247408
N       5.186840    0.669575    2.119860
H       1.039008    1.927190   -0.063017
H      -0.495870    1.925400   -0.944502
H      -0.493617    2.003667    0.820926
H      -1.058507   -0.326181    0.023768
H       0.444877   -0.399775   -0.877950
H       0.214801   -0.138986    2.156664
H       1.068783   -2.433499    2.240531
H      -0.401110   -2.423057    1.259510
H       2.154828   -2.201947    0.119132
H       2.180001    0.799483    3.039538
H       2.637509   -0.912603    3.036171
