15

O       0.170851    1.360121    0.331289
C       0.004491   -0.004057    0.083265
C      -1.441903   -0.485777   -0.192768
O      -2.035486    0.265268   -1.237425
C      -1.475930   -0.263130   -2.449973
C      -0.460703   -1.295389   -1.899553
O      -1.178681   -1.768797   -0.746092
C       0.633618   -0.447020   -1.250140
O       1.680667   -0.060430   -1.697649
H       0.999418    1.624196   -0.090646
H       0.403929   -0.628678    0.899799
H      -2.117294   -0.549823    0.658418
H      -2.256992   -0.754073   -3.040089
H      -1.011692    0.535144   -3.036264
H      -0.159038   -2.103752   -2.560155
