14

C      -0.593273    1.614303    0.103114
C       0.053837    0.232619    0.031922
O       0.826738    0.048939    1.201777
C      -0.979680   -0.819493   -0.107819
N      -1.770378   -1.652578   -0.237976
C       0.991997    0.124107   -1.204824
O       1.055934    0.944902   -2.080736
C       1.915605   -1.104850   -1.274815
O       1.995279   -1.933966   -0.404656
H       0.192056    2.366141    0.202127
H      -1.168920    1.818894   -0.800292
H      -1.248284    1.659336    0.974618
H       1.201549   -0.843861    1.170340
H       2.502803   -1.147338   -2.213070
