23

C      -0.080960    1.511879    0.032958
C       0.027966   -0.003928    0.015535
C       0.918376   -0.701044   -1.067777
C       1.201786   -1.794228    0.004426
C       0.955246   -0.689478    1.064430
C       0.077841   -2.845494    0.029643
C      -1.308389   -2.200637   -0.047728
C      -1.926146   -1.450068    1.112381
C      -1.338968   -0.687896   -0.048398
H       0.909689    1.978935    0.051653
H      -0.609009    1.882566   -0.853653
H      -0.633632    1.857607    0.914410
H       0.434862   -1.003150   -2.001941
H       1.817099   -0.118233   -1.292132
H       2.183345   -2.274559   -0.008421
H       1.853030   -0.083341    1.220727
H       0.554831   -0.970177    2.041628
H       0.202581   -3.511490   -0.832827
H       0.176289   -3.476155    0.923105
H      -2.014434   -2.710565   -0.695407
H      -3.007554   -1.476569    1.198994
H      -1.415521   -1.445396    2.068457
H      -2.041570   -0.199470   -0.719557
