21

C       0.055782    1.418021   -0.216735
C       0.061644   -0.072659    0.124231
O       0.663027   -0.312664    1.400848
C      -1.325745   -0.679786    0.064356
C      -2.027832   -1.223297   -1.169476
C      -1.046065   -1.954324   -2.095472
C      -0.661590   -2.910172   -0.917991
C      -1.639845   -2.146191   -0.015275
O      -2.486536   -2.765859    0.888711
H       1.065847    1.830971   -0.146309
H      -0.324758    1.586829   -1.229080
H      -0.590580    1.972293    0.476078
H       0.723304   -0.590339   -0.577131
H       0.158889    0.184105    2.054921
H      -2.039156   -0.173780    0.717522
H      -3.005733   -0.856171   -1.457007
H      -1.550752   -2.482159   -2.907200
H      -0.239528   -1.353673   -2.526764
H      -1.008168   -3.930392   -1.095311
H       0.386274   -2.940708   -0.603321
H      -2.042849   -2.786907    1.743958
