16

C       0.089729    1.507651    0.220278
N       1.553435    1.420380   -0.127115
C       1.310188    0.200443   -0.955027
C       1.478501   -1.206495   -0.350264
O       0.726149   -0.768358    0.818387
C      -0.016137    0.040756   -0.188625
C      -0.806802   -1.057063   -0.903903
O      -0.287769   -1.333100   -2.218506
C       0.320379   -1.985529   -1.091152
H      -0.113145    1.734276    1.269975
H      -0.488645    2.174822   -0.431408
H       1.874060    2.196526   -0.694577
H       1.359574    0.330916   -2.033855
H       2.400044   -1.745590   -0.125101
H      -1.834465   -1.338185   -0.707395
H       0.246644   -3.067143   -1.059215
