18

O       0.023858   -0.097908    0.064495
C      -0.008906    1.111332    0.044099
C      -1.338487    1.857068    0.044379
C      -1.526169    2.795539   -1.166409
N      -0.738544    4.014055   -1.112820
C       0.624441    4.135907   -1.164717
O       1.164221    5.226081   -1.131682
C       1.418745    2.836657   -1.239277
C       1.273919    1.931142    0.009696
H      -2.127872    1.101043    0.051567
H      -1.419277    2.454093    0.961368
H      -1.329148    2.242316   -2.094194
H      -2.574939    3.098801   -1.208469
H      -1.222712    4.896505   -1.043760
H       1.149420    2.272315   -2.140780
H       2.461367    3.139261   -1.342467
H       1.329111    2.555152    0.911098
H       2.100525    1.218223    0.043836
