21

C      -0.101755   -1.234080    0.043725
C      -0.074193   -0.032231    0.019811
C      -0.015379    1.424716   -0.018027
C       1.421188    1.991759    0.003883
C       1.413476    3.521480   -0.128428
C       2.840134    4.078667   -0.242016
C       3.776148    3.441803    0.752310
C       3.478378    2.336527    1.434027
C       2.186925    1.577567    1.270829
H      -0.137280   -2.294868    0.065760
H      -0.529135    1.781763   -0.920304
H      -0.576610    1.834757    0.833320
H       1.954737    1.577528   -0.862269
H       0.818163    3.828364   -0.996515
H       0.925058    3.951968    0.756558
H       3.225301    3.923699   -1.261183
H       2.829929    5.166868   -0.099605
H       4.737369    3.927425    0.904299
H       4.191246    1.938107    2.152414
H       1.550902    1.737618    2.156373
H       2.383051    0.499395    1.248900
