15

O      -0.082812    0.024701   -0.160381
C      -0.080731    1.206967    0.001179
C      -1.134474    2.283683    0.310148
N      -0.009664    3.244470    0.479338
C       1.000950    2.295415   -0.018828
C       2.378409    2.126575    0.651532
O       3.062965    2.248905   -0.612660
C       1.837092    2.520254   -1.307005
H      -1.805042    2.469131   -0.539847
H      -1.739498    2.128897    1.209582
H      -0.091882    4.098351   -0.060486
H       2.623417    2.939066    1.346554
H       2.561217    1.156310    1.127294
H       1.658424    1.819001   -2.130919
H       1.786866    3.551631   -1.686344
