21

C      -0.050386    1.514740    0.026361
C      -0.039848    0.010282    0.114007
C      -1.288991   -0.776813   -0.292669
N      -1.317926   -2.032113    0.493218
C      -1.528184   -1.792101    1.931559
C      -0.153648   -2.029026    1.420314
C       0.567938   -3.333606    1.660072
C       0.650648   -0.783160    1.165903
N       1.243565   -0.657606   -0.180071
H       0.912420    1.924025    0.341403
H      -0.230711    1.843404   -1.003812
H      -0.838338    1.942054    0.656525
H      -2.202766   -0.198022   -0.113428
H      -1.269490   -1.028643   -1.361029
H      -1.792846   -0.785260    2.250085
H      -2.055433   -2.586898    2.452748
H      -0.139969   -4.165565    1.686980
H       1.298871   -3.534080    0.869111
H       1.107122   -3.307466    2.613575
H       1.224742   -0.334863    1.972801
H       1.088358   -1.512409   -0.713182
