15

O      -0.143486    1.395599   -0.100118
C       0.026390    0.038393   -0.033200
C       0.896925   -0.841375   -1.001933
C      -0.158804   -1.905535   -0.951875
C       1.160164   -2.123758   -0.220226
C       0.956612   -1.854233    1.244708
O       1.529199   -2.347064    2.183934
C      -0.114428   -0.809205    1.235047
C      -1.016653   -1.021638    0.008751
H       0.606271    1.822687    0.331550
H       1.500807   -0.497050   -1.830112
H      -0.525857   -2.554063   -1.734753
H       1.881483   -2.852214   -0.564576
H      -0.519229   -0.373679    2.137761
H      -2.093919   -0.952173    0.055663
