19

C      -0.050928    1.502562   -0.103279
C       0.073549   -0.000707    0.019869
C       1.413609   -0.687557    0.005189
O       2.589173    0.074676    0.073989
C       0.600916   -0.702521    1.288574
C       1.148804    0.111628    2.465470
O       2.369273   -0.409152    2.951488
C      -0.021474   -1.949455    1.643840
C      -0.559762   -2.983942    1.939893
H       0.867018    2.013912    0.193673
H      -0.258574    1.773910   -1.144384
H      -0.872485    1.890657    0.506924
H      -0.720038   -0.556964   -0.470441
H       1.514176   -1.628719   -0.531458
H       2.773683    0.443504   -0.796238
H       1.250210    1.164923    2.179997
H       0.437122    0.059567    3.294109
H       3.004716   -0.316257    2.231973
H      -1.021869   -3.900538    2.210458
