13

O      -0.263138    0.479887    0.812222
C       0.270803    0.842313   -0.203341
C       1.444001    1.775781   -0.208159
O       2.301816    1.704556   -1.339567
C       1.513154    2.897321   -1.210900
C       0.461140    3.078976   -2.184317
C      -0.409698    3.258026   -2.991466
C       2.229702    4.092593   -0.836004
C       2.815602    5.092175   -0.520706
H      -0.054833    0.512961   -1.210686
H       1.923972    1.937935    0.755222
H      -1.179263    3.413175   -3.707713
H       3.336855    5.976735   -0.246951
