19

C       0.019639    1.486022    0.045133
C       0.000055    0.030477    0.020422
C      -0.000453   -1.173369    0.001606
C      -0.042885   -2.633099   -0.035534
C      -1.493516   -3.148844   -0.100483
C       0.811193   -3.167253   -1.228147
O       2.124544   -2.630470   -1.230386
C       0.840771   -4.634008   -1.246155
C       0.908417   -5.834413   -1.219208
H       0.825105    1.881362   -0.583634
H      -0.923666    1.905883   -0.321530
H       0.177148    1.865051    1.061106
H       0.421747   -3.027347    0.880152
H      -1.516087   -4.241245   -0.090182
H      -2.064387   -2.776145    0.753188
H      -1.985575   -2.797022   -1.012706
H       0.354636   -2.799788   -2.154629
H       2.604995   -3.029374   -0.496129
H       0.963694   -6.895221   -1.219109
