15

C       0.181223    1.433194    0.074061
C      -0.056133   -0.026283   -0.020165
C      -1.122621   -0.822563   -0.253428
N      -0.736677   -2.166657   -0.222497
C       0.526763   -2.096658    0.024838
O       1.433496   -3.071119    0.168930
C       0.993933   -4.368355    0.034939
N       1.840008   -5.285631    0.172446
O       1.036273   -0.864934    0.164154
H       0.904971    1.773773   -0.674816
H      -0.758219    1.965525   -0.091425
H       0.567156    1.716880    1.059534
H      -2.145013   -0.536658   -0.442437
H      -0.073292   -4.431035   -0.181652
H       1.390329   -6.191121    0.049662
