20

O       0.001460    1.399318   -0.154886
C      -0.012429    0.069767    0.332481
C      -1.381260   -0.545291    0.081387
O      -1.685011   -0.491777   -1.341055
C      -1.648488   -1.932620   -1.448644
C      -1.511986   -2.090311    0.078954
N      -0.359861   -2.840475    0.532379
C      -0.397541   -3.311604    1.916268
C      -0.581945   -4.263012    0.788389
H      -0.314841    1.342961   -1.065511
H       0.765048   -0.548091   -0.136957
H       0.197564    0.114945    1.406609
H      -2.145165   -0.004012    0.652169
H      -2.560681   -2.328527   -1.907743
H      -0.771700   -2.287877   -2.003087
H      -2.445872   -2.429314    0.554868
H       0.545241   -3.266937    2.452849
H      -1.275616   -3.070518    2.513224
H      -1.583921   -4.659017    0.630634
H       0.223274   -4.926083    0.487058
