18

O       0.097325   -0.011092    0.405136
C       0.225705    1.188800    0.498341
C       1.333256    1.957477   -0.095733
C       1.382627    3.283877    0.088191
C       2.474622    4.146277   -0.475738
N       3.706388    3.461861   -0.871275
C       4.332002    2.597997    0.132457
C       3.663285    2.005747   -1.057692
C       2.367283    1.226836   -0.907829
H      -0.510133    1.806808    1.061413
H       0.597507    3.776974    0.659951
H       2.084669    4.670076   -1.361960
H       2.737165    4.935140    0.240733
H       5.415350    2.658598    0.189025
H       3.830628    2.477809    1.090983
H       4.294542    1.662918   -1.875050
H       2.553118    0.241978   -0.464729
H       1.952533    1.021354   -1.904023
