21

C       0.600003    1.492314   -0.379998
C       0.338231    0.024576   -0.219461
N      -0.973267   -0.480480    0.271013
C       0.267780   -0.819089    1.010375
C       0.861473   -2.038200    0.303908
C       1.043775   -1.147023   -0.970674
N       0.640218   -1.709875   -2.240112
C      -0.763905   -1.684687   -2.644452
C       0.236825   -0.803308   -3.309684
H       1.668079    1.686097   -0.527312
H       0.065151    1.911974   -1.240213
H       0.279539    2.047410    0.509768
H      -1.413557    0.296733    0.764677
H       0.385697   -0.522789    2.045817
H       1.806144   -2.397007    0.716281
H       0.166035   -2.872508    0.189648
H       2.101084   -0.873907   -1.069162
H      -1.107161   -2.584082   -3.149733
H      -1.480447   -1.224484   -1.973867
H       0.181831    0.261370   -3.091401
H       0.616223   -1.041617   -4.300086
