20

C      -0.048388    1.521173   -0.037253
C       0.090572    0.010768    0.051976
O       0.762805   -0.425849   -1.129896
C       0.876991   -1.834781   -1.218562
C       1.731884   -2.392601   -0.082199
C       1.149516   -1.974319    1.280819
C       0.824055   -0.500656    1.281686
N       1.090783    0.339165    2.203426
O       1.744871   -0.244276    3.301066
H       0.936127    1.994046   -0.045263
H      -0.572428    1.779041   -0.960940
H      -0.607061    1.908587    0.816423
H      -0.916456   -0.449939    0.063262
H      -0.125521   -2.298786   -1.202220
H       1.326915   -2.043467   -2.193644
H       1.791875   -3.484371   -0.152601
H       2.749530   -1.998832   -0.182708
H       0.216366   -2.528710    1.458722
H       1.826892   -2.213353    2.100416
H       1.887887    0.516441    3.873671
