14

N       0.081570    1.344135   -0.076441
C       0.065483    0.020643   -0.041702
N       1.208699   -0.707688   -0.172870
N      -1.101785   -0.608982    0.087224
H      -1.138632   -1.616213    0.130916
C      -2.350555    0.042373    0.140175
N      -2.479739    1.367952    0.096664
N      -3.817050    1.549913    0.173609
N      -4.405737    0.383616    0.258125
N      -3.490789   -0.614657    0.239918
H       0.934128    1.839395   -0.273009
H      -0.875995    1.800914   -0.036544
H       2.079513   -0.249740    0.042502
H       1.181149   -1.686046    0.065717
