14

C       0.067533    1.203869   -0.597002
C       0.037408   -0.041568    0.302061
O       0.513158    0.203912    1.602426
C      -1.345797   -0.625927    0.346008
N      -2.094250   -0.685722    1.383727
O      -3.305503   -1.256732    0.910435
C      -3.190577   -1.509851   -0.417226
O      -4.000225   -1.985552   -1.137176
O      -1.915442   -1.097500   -0.786546
H       1.088371    1.590200   -0.629935
H      -0.256880    0.965361   -1.613738
H      -0.589196    1.982274   -0.195267
H       0.701250   -0.803625   -0.124710
H      -0.164307    0.683576    2.094393
