23

C      -0.001277    1.581705    0.000558
C       0.055951    0.053273    0.017406
C       0.780500   -0.564769   -1.206549
C       1.291240   -1.922443   -0.723597
C       0.703034   -3.205534   -1.258668
C       2.124720   -2.817405   -1.599750
C       1.530041   -1.779751    0.758208
C       2.287371   -0.555549    1.219571
C       0.776628   -0.553103    1.221116
H       1.006272    2.012250    0.009142
H      -0.515707    1.950570   -0.893684
H      -0.535570    1.969369    0.874542
H      -0.973049   -0.331782    0.034204
H       0.126381   -0.646570   -2.079587
H       1.620691    0.075847   -1.503507
H       0.550788   -4.029530   -0.568428
H      -0.046639   -3.139055   -2.040916
H       2.334749   -2.491894   -2.613890
H       2.931154   -3.379293   -1.139688
H       1.580434   -2.680129    1.361787
H       2.778685   -0.615102    2.184804
H       2.827833    0.039295    0.490241
H       0.269466   -0.534893    2.180234
