19

C      -0.203815    1.480126    0.214698
C       0.206281    0.012851    0.031312
C       0.824084   -0.566080    1.260670
O       2.067210   -0.014823    1.738018
C       2.146107   -1.175143    2.605683
C       1.100620   -1.952052    1.729052
C       0.068896   -1.110497    2.489570
C       1.023648   -0.913552    3.656179
O       0.865067   -1.961242    4.589721
H       0.659134    2.085350    0.506133
H      -0.612348    1.890817   -0.713094
H      -0.963189    1.580963    0.996466
H      -0.663316   -0.598707   -0.237982
H       0.922138   -0.075051   -0.795037
H       3.158988   -1.465988    2.881246
H       1.059200   -2.928622    1.268175
H      -1.006899   -1.227408    2.520144
H       1.052607    0.071103    4.144000
H       1.559176   -1.871905    5.251083
