15

O       0.168192    1.455617    0.554967
C       0.015278    0.078228    0.679399
C      -1.144991   -0.434106   -0.154230
O      -1.840053    0.341848   -0.772717
C      -1.366596   -1.922826   -0.153774
O      -2.684049   -2.388853   -0.381769
C      -1.728933   -2.675046   -1.394006
C      -1.927031   -1.995376   -2.719959
O      -1.444357   -2.437002   -3.731285
H      -0.564555    1.750699   -0.008502
H       0.928589   -0.458435    0.368751
H      -0.168807   -0.220454    1.727324
H      -0.805347   -2.477108    0.599721
H      -1.390632   -3.708955   -1.460090
H      -2.552237   -1.085362   -2.686064
