17

C      -0.147190    1.438645    0.184689
O      -0.221505    0.008452    0.275920
C       0.859834   -0.591163    0.806510
O       1.838961    0.003933    1.188068
C       0.698653   -2.088246    0.865166
C       1.883585   -2.905559    0.248477
C       1.906011   -3.736832    1.539483
O       2.370557   -4.796637    1.835782
C       0.997408   -2.731180    2.261425
H       0.694852    1.740081   -0.443108
H      -1.090046    1.756267   -0.259999
H      -0.021492    1.880537    1.176126
H      -0.268852   -2.388150    0.465059
H       1.712411   -3.438070   -0.689112
H       2.786868   -2.292216    0.164499
H       1.586699   -2.055831    2.890548
H       0.160570   -3.132650    2.836290
