20

C      -0.104099    1.489825    0.100763
C       0.082232    0.007364    0.022631
N      -0.840052   -0.926615    0.738790
C       0.639789   -0.973460    0.972568
C       1.307656   -1.780494   -0.160566
C       0.356517   -2.215716   -1.254477
O      -0.889029   -2.801573   -1.121562
C       0.734089   -0.753499   -1.183980
C       1.441852   -0.014579   -2.285027
H       0.799245    2.021213   -0.214403
H      -0.928360    1.822909   -0.541077
H      -0.330865    1.798385    1.127425
H      -1.253914   -0.406777    1.512218
H       1.034836   -0.837630    1.971645
H       2.324013   -2.149482   -0.080586
H       0.900174   -2.706018   -2.062037
H      -1.305671   -2.319308   -0.384392
H       0.733352    0.512041   -2.936392
H       2.151193    0.727299   -1.897773
H       2.007845   -0.711313   -2.911506
