16

O       0.167065    1.390022   -0.048231
C       0.017305    0.000001   -0.027602
C       0.310694   -0.732573    1.296576
N      -0.675475   -0.172488    2.254075
C      -1.072848   -1.284355    1.343104
C      -1.421406   -0.598981    0.040239
C      -2.677623    0.002782   -0.436761
N      -2.139057   -1.232802   -1.055232
H      -0.236694    1.702077    0.773446
H       0.584694   -0.406267   -0.870973
H       1.248146   -1.153139    1.637493
H      -0.475769   -0.576167    3.168210
H      -1.432722   -2.231661    1.722253
H      -3.599930   -0.130567    0.121486
H      -2.600604    0.937352   -0.986792
H      -1.690606   -1.011345   -1.942108
