16

O      -0.071885   -0.044714    0.131335
C      -0.071603    1.150956    0.001338
N      -1.199375    1.897350   -0.283372
C      -1.321219    3.292960    0.069832
C      -1.191146    3.711737    1.560635
O       0.037771    4.418390    1.290838
C       0.004882    4.064413   -0.103485
C       1.138410    3.153139   -0.521451
O       1.074128    1.873659    0.120510
H      -2.037992    1.335748   -0.274254
H      -2.185342    3.713634   -0.445393
H      -1.974637    4.381064    1.934874
H      -1.047708    2.881422    2.261601
H      -0.025979    4.950280   -0.750202
H       1.120470    3.020968   -1.611471
H       2.101956    3.578392   -0.232031
