18

C      -0.145283   -1.270734   -0.158235
C      -0.038480   -0.078608   -0.042202
C       0.047551    1.361400    0.054835
C       0.037571    2.095821    1.454123
C       1.215769    1.387330    2.160719
C       2.157339    1.394771    1.215820
C       1.440985    2.106884    0.045726
N       0.682951    3.223360    0.702609
C       1.403719    4.253981    1.428933
H      -0.232381   -2.324640   -0.253427
H      -0.646978    1.848937   -0.633405
H      -0.883840    2.298347    2.000071
H       1.225088    0.975189    3.158917
H       3.158776    0.990465    1.218388
H       1.982027    2.320937   -0.875974
H       1.928889    4.890860    0.709654
H       0.681340    4.880958    1.961707
H       2.135974    3.869770    2.155519
