14

C      -0.055799    1.491336    0.031930
C       0.003319   -0.011214    0.010888
N       0.091700   -0.604647   -1.189789
C       0.144288   -1.930331   -1.215853
C       0.110209   -2.696240   -0.048897
O       0.167496   -4.049456   -0.141795
C       0.017785   -1.987639    1.144199
N      -0.035590   -0.656574    1.181007
H       0.834930    1.915442   -0.442491
H      -0.919552    1.847749   -0.538369
H      -0.125809    1.852187    1.058285
H       0.216026   -2.420490   -2.184347
H       0.134262   -4.433498    0.741573
H      -0.014199   -2.511125    2.101125
