18

C      -0.039772    1.503936    0.023540
C      -0.016119    0.010407   -0.034734
C       0.024026   -0.780970   -1.111265
C      -0.001912   -2.254274   -0.758186
C       0.020371   -2.254197    0.767691
C       1.217399   -1.638774    1.468945
C      -0.026096   -0.814346    1.223315
O      -0.833724   -0.412999    2.290351
H       0.849449    1.899328    0.533014
H      -0.083033    1.947396   -0.974406
H      -0.909177    1.850828    0.594168
H       0.093889   -0.430164   -2.135624
H      -0.902126   -2.746563   -1.150303
H       0.853902   -2.795166   -1.183523
H      -0.533263   -3.007057    1.315115
H       1.383035   -1.974977    2.488184
H       2.116760   -1.414599    0.903147
H      -0.310125    0.156104    2.863790
