21

C       0.033758    1.542063   -0.004027
C       0.007554    0.020556    0.012730
C       0.325131   -0.660610   -1.367148
C      -0.945472   -1.515151   -1.231341
O      -0.737075   -2.672174   -0.388490
C      -1.204258   -1.966271    0.796847
C      -0.094605   -1.721848    1.812087
C       0.787486   -0.595622    1.210398
C      -1.403206   -0.676122   -0.013952
H       1.057681    1.915755   -0.123618
H      -0.563610    1.945105   -0.829189
H      -0.362833    1.955750    0.930669
H       0.247640    0.052612   -2.195140
H       1.265274   -1.212181   -1.455314
H      -1.538652   -1.752736   -2.117732
H      -2.088486   -2.460741    1.214733
H      -0.545905   -1.397469    2.757496
H       0.459948   -2.642122    2.017420
H       1.756002   -0.979163    0.876682
H       0.999496    0.168954    1.964683
H      -2.312383   -0.081915    0.057540
