23

C      -0.197233    1.581413   -0.048385
C       0.072236    0.075250    0.046870
C       0.824593   -0.492316   -1.173981
C       2.296845   -0.058024   -1.197038
C       0.651778   -2.044786   -1.288066
C       1.169532   -2.807804   -0.055254
N      -0.780887   -2.345513   -1.442602
C       1.398935   -2.519210   -2.482245
N       1.929942   -2.907919   -3.433891
H       0.726546    2.165734   -0.103027
H      -0.794689    1.820651   -0.935276
H      -0.752720    1.929882    0.827756
H       0.650206   -0.129488    0.956888
H      -0.878831   -0.454890    0.149024
H       0.345702   -0.085679   -2.077134
H       2.824897   -0.453925   -2.068563
H       2.371477    1.031802   -1.233871
H       2.826189   -0.390532   -0.297534
H       0.589318   -2.518726    0.822748
H       1.058559   -3.886154   -0.202738
H       2.226623   -2.603316    0.124899
H      -1.129313   -1.938812   -2.306780
H      -0.916389   -3.349537   -1.522071
