19

C       0.432139    1.586148   -0.196847
C      -0.127088    0.183363    0.097829
C       0.412388   -0.418829    1.349541
C      -0.151527   -0.796330    2.529208
C       0.907575   -1.309542    3.355672
C       0.811535   -1.855579    4.749835
O       1.933107   -2.646525    5.111279
C       2.036536   -1.202061    2.605680
O       1.754268   -0.666401    1.384510
H       1.521505    1.557119   -0.285636
H       0.023057    1.976819   -1.133385
H       0.178292    2.284474    0.606384
H      -1.217318    0.223020    0.188023
H       0.093440   -0.478040   -0.750308
H      -1.198240   -0.724131    2.784120
H       0.782521   -1.041723    5.484598
H      -0.131929   -2.413399    4.866582
H       1.996135   -3.359225    4.466213
H       3.068631   -1.446045    2.790969
