16

O      -0.295006    1.303633   -0.169654
C      -0.037580   -0.063912   -0.154371
C       0.904214   -0.500574   -1.282869
O       1.526869    0.255710   -1.975683
C       0.579457   -0.539664    1.164101
N       1.358372    0.481585    1.861475
C       0.133191   -0.051205    2.507614
C      -0.977415    0.831595    2.732680
C      -1.924981    1.522419    2.994389
H       0.466462    1.732244    0.246389
H      -0.991438   -0.590740   -0.307638
H       0.983523   -1.608863   -1.403989
H       0.963224   -1.559047    1.146113
H       2.193213    0.100264    2.296053
H       0.293461   -0.762635    3.316341
H      -2.758926    2.149200    3.193161
