23

C      -0.127573    1.557854   -0.035397
C       0.035031    0.038158   -0.009595
C       0.932601   -0.542923   -1.101958
C       2.339966   -0.641381   -0.529684
C       2.280304   -0.129353    0.905008
C       0.821803   -0.562038    1.190888
C       0.870782   -2.057028    0.798801
C       1.456996   -1.877731   -0.603927
C       1.743491   -3.046331   -1.506386
H       0.836000    2.075250   -0.049413
H      -0.677018    1.871676   -0.929720
H      -0.688748    1.910511    0.837174
H      -0.963029   -0.418465   -0.049771
H       0.758898   -0.360345   -2.155725
H       3.216571   -0.538194   -1.156815
H       2.994732   -0.632972    1.565645
H       2.441514    0.948919    0.992882
H       0.431496   -0.330867    2.182496
H       1.519519   -2.648685    1.455342
H      -0.121558   -2.522862    0.785711
H       0.832984   -3.618633   -1.721690
H       2.160384   -2.718134   -2.464374
H       2.465215   -3.735347   -1.051132
