17

O       0.199102    1.142823    0.498176
C      -0.005529   -0.216598    0.184570
C      -1.454871   -0.491877   -0.209377
C      -1.795204   -1.980715   -0.392326
C      -2.318231   -2.387158    0.993878
C      -2.825275   -1.087044    1.578996
N      -3.600587   -0.970530    2.566794
O      -2.310565   -0.033578    0.866545
H      -0.480804    1.378719    1.140469
H       0.651086   -0.454210   -0.659667
H       0.278680   -0.876244    1.022462
H      -1.708709    0.117396   -1.081373
H      -2.575744   -2.097284   -1.148732
H      -0.928050   -2.561701   -0.715839
H      -3.108513   -3.137812    0.975100
H      -1.517053   -2.773470    1.632943
H      -3.780953    0.014129    2.770304
