21

C      -0.280576    1.474202   -0.016787
C       0.099407    0.004032   -0.056966
O       1.314431   -0.209942   -0.820193
C       1.996095   -0.809181    0.298997
C       0.753343   -0.641350    1.186275
C       0.738770   -0.083952    2.635309
C      -0.700706   -0.666374    2.764016
C       0.132822   -1.770260    2.050681
C       1.260846   -1.481840    3.084827
H       0.509807    2.070296    0.449345
H      -0.430248    1.844222   -1.036078
H      -1.210340    1.628498    0.540718
H      -0.725692   -0.588316   -0.479642
H       2.298116   -1.844360    0.090305
H       2.886009   -0.235814    0.592250
H       1.092718    0.891726    2.971986
H      -1.040728   -0.895812    3.777591
H      -1.489061   -0.184136    2.181968
H      -0.215213   -2.744409    1.702373
H       2.280970   -1.748504    2.796520
H       1.054038   -1.765586    4.120272
