16

C      -0.073876    1.571295    0.035765
C       0.043441    0.046096    0.022484
C       0.765392   -0.483735   -1.224434
N       2.150140   -0.027713   -1.261542
C       0.655474   -2.009160   -1.306792
F      -0.619691   -2.423972   -1.361447
F       1.274852   -2.478662   -2.405362
F       1.229787   -2.603218   -0.244945
H       0.911160    2.037702   -0.038379
H      -0.677122    1.926832   -0.806880
H      -0.553666    1.914750    0.956817
H       0.587084   -0.299940    0.910584
H      -0.949823   -0.411355    0.070986
H       0.259355   -0.105376   -2.121533
H       2.660799   -0.429560   -0.479459
H       2.604839   -0.359292   -2.106585
