16

C       0.042862    1.554384   -0.243810
C       0.004976    0.067801    0.015898
N       1.278689   -0.669232   -0.022694
C       0.534496   -0.593672    1.239406
C       1.203185    0.178773    2.365819
O       0.275403    0.804900    3.233184
C       2.113721   -0.713269    3.116728
N       2.782131   -1.437167    3.720559
H       0.957550    2.008188    0.143327
H       0.009335    1.750053   -1.320450
H      -0.814924    2.050710    0.220637
H      -0.859408   -0.434772   -0.417699
H       1.175129   -1.583739   -0.451999
H       0.011785   -1.487570    1.579331
H       1.804301    0.982826    1.934696
H      -0.235108    0.119929    3.680100
