18

O      -0.099896    0.022659   -0.100679
C      -0.094498    1.222594   -0.003185
C      -1.304751    2.146093    0.146894
C      -0.667121    3.489545    0.539391
N       0.697714    3.489878   -0.033241
C       1.159752    2.106087   -0.019415
C       2.233993    1.743295    1.050281
O       3.209935    1.437395    0.038485
C       2.273662    1.716361   -1.013416
H      -1.800046    2.210872   -0.830510
H      -2.029129    1.737913    0.855243
H      -1.222309    4.360716    0.187038
H      -0.591420    3.570883    1.630499
H       0.659579    3.818851   -0.993494
H       2.525605    2.596086    1.672967
H       2.004089    0.869594    1.671175
H       2.049033    0.826669   -1.613336
H       2.606874    2.535907   -1.663840
