14

O       0.463723    0.403263   -0.587338
C       0.108658    1.399781   -0.051726
C      -1.110630    2.319460   -0.039427
C      -0.290325    3.113340    1.000920
O       0.795968    2.136535    0.888882
C       0.139089    4.499978    0.604549
C       1.552501    4.868263    0.460424
O       0.728639    4.621484   -0.685445
H      -1.285150    2.832962   -0.985582
H      -2.027874    1.847352    0.314112
H      -0.693165    3.106777    2.017663
H      -0.585551    5.277596    0.853244
H       1.852968    5.904534    0.603525
H       2.312395    4.114956    0.649221
