15

O      -0.425524    1.425819    0.117238
C      -0.188892    0.056650    0.063949
C      -0.081940   -0.730334    1.431751
N      -1.571318   -0.562330    1.609471
C      -2.201234    0.558926    2.127252
N      -3.274159    1.017147    1.624089
C      -1.475207   -0.835472    0.124671
C      -0.509786   -1.960296    0.587655
O      -0.245689   -3.099776    0.402340
H       0.415806    1.873622    0.254417
H       0.545776   -0.218445   -0.706825
H       0.627995   -0.628085    2.250152
H      -1.722960    0.901246    3.054120
H      -3.644303    1.769050    2.201717
H      -2.344798   -0.837045   -0.523974
