18

O      -0.029978    1.452033    0.046440
C       0.033506    0.027699    0.013820
C       0.652773   -0.472543   -1.216613
C       1.215297   -0.866182   -2.203801
C       0.748448   -0.514221    1.245058
C       2.214457   -0.302477    1.694054
N       1.648247   -1.170957    2.832961
C       0.412346   -0.256560    2.730919
C       0.977620   -1.972258    1.699564
H       0.852600    1.784384   -0.152521
H      -1.013295   -0.300398    0.050233
H       1.689072   -1.215937   -3.087973
H       3.004871   -0.793991    1.121319
H       2.515847    0.696371    2.021867
H       0.575916    0.748169    3.126839
H      -0.496961   -0.706604    3.138887
H       0.110448   -2.550581    2.030302
H       1.675173   -2.586473    1.125083
