20

C      -0.259035    1.436248   -0.143047
N      -0.185690   -0.002550   -0.279230
C       0.857749   -0.629970   -0.869005
O       1.827856   -0.067524   -1.355292
C       0.743267   -2.164564   -0.915854
C       1.965586   -2.792445   -0.232703
O      -0.459981   -2.570870   -0.265732
C       0.657418   -2.570785   -2.396917
O       0.348867   -3.963654   -2.409496
H       0.649182    1.854216   -0.579768
H      -1.129238    1.843948   -0.670160
H      -0.320334    1.733559    0.909855
H      -0.923726   -0.596189    0.066315
H       1.921221   -2.606159    0.843540
H       1.975492   -3.872104   -0.402382
H       2.882962   -2.353278   -0.630502
H      -0.692166   -3.422099   -0.659918
H      -0.139364   -1.992250   -2.885163
H       1.607292   -2.353049   -2.897728
H       0.099352   -4.216067   -3.302417
