15

C       0.642848    1.448914   -0.163217
O       1.154790    0.147435   -0.487797
C       0.301476   -0.671053   -1.104994
O      -0.826299   -0.390043   -1.427046
C       0.886631   -2.033517   -1.349601
N       2.337116   -2.182746   -1.459039
C       1.668007   -2.795161   -0.309536
C       1.962377   -2.264032    1.001131
N       2.180507   -1.899142    2.075471
H       0.369476    1.987310   -1.073813
H      -0.237137    1.362958    0.478151
H       1.451228    1.958808    0.358770
H       0.238404   -2.636185   -1.978857
H       2.573814   -2.894108   -2.145880
H       1.510873   -3.871190   -0.307334
