22

C      -0.611090    1.481078    0.070844
C      -0.020667    0.078277   -0.008596
C      -1.093630   -0.965990   -0.361076
N      -1.742074   -0.744775   -1.644725
C      -3.026279   -0.314231   -1.768829
O      -3.779248   -0.071649   -0.849279
C       1.274969   -0.085160   -0.871611
C       1.919027   -0.910057    0.273984
C       0.804148   -0.405203    1.228755
H       0.154796    2.207947    0.360274
H      -1.022267    1.793548   -0.894527
H      -1.423283    1.529105    0.804323
H      -0.652499   -1.970579   -0.355354
H      -1.888846   -0.946810    0.388825
H      -1.215153   -0.898971   -2.489379
H      -3.321082   -0.211146   -2.832668
H       1.174735   -0.573812   -1.846735
H       1.777548    0.873572   -1.027843
H       1.864480   -1.987734    0.098306
H       2.948913   -0.663783    0.540721
H       1.132112    0.434081    1.848150
H       0.327222   -1.144497    1.879407
