22

C       0.657321   -0.118680    1.285244
O      -0.097619    0.031533    0.095692
C      -1.314192   -0.705771    0.023404
C      -2.327140   -0.146743    1.014148
O      -2.485268    1.246992    0.834367
C      -1.747537   -0.777882   -1.460011
N      -1.236625   -2.160753   -1.526828
C      -2.007044   -3.152412   -2.238114
C      -1.152706   -2.250328   -0.059455
H       1.598189    0.412372    1.123276
H       0.156296    0.316548    2.160619
H       0.882704   -1.171267    1.500564
H      -3.302898   -0.615547    0.852291
H      -2.020109   -0.389559    2.045782
H      -1.607098    1.585001    0.617531
H      -2.838790   -0.694746   -1.579739
H      -1.252177   -0.073346   -2.134858
H      -2.036137   -2.904479   -3.304518
H      -1.534213   -4.135318   -2.136809
H      -3.052228   -3.237805   -1.879636
H      -0.222544   -2.687713    0.319132
H      -2.003017   -2.775134    0.408897
