22

C      -0.136605    1.612279   -0.000988
C       0.083983    0.103279    0.033855
C      -1.076026   -0.594662   -0.681282
C       1.376902   -0.675745   -0.191799
C       2.662909   -0.177044    0.512664
N       2.422083    1.115403    1.198941
C       1.975880   -0.161943    1.816910
C       0.660541   -0.719158    1.171326
C      -0.016122   -1.850438    1.897700
H      -0.076714    1.970617   -1.036163
H      -1.149901    1.833531    0.357788
H       0.583130    2.160840    0.594723
H      -1.194059   -0.170501   -1.684415
H      -0.926210   -1.671363   -0.794323
H      -2.018303   -0.438071   -0.144038
H       1.418269   -1.457302   -0.942443
H       3.665833   -0.493083    0.255005
H       3.296391    1.362893    1.664020
H       2.327759   -0.456810    2.798139
H      -0.492042   -1.487885    2.818366
H      -0.788508   -2.335105    1.297424
H       0.709389   -2.620102    2.189562
