23

C       1.406694    0.903608   -0.866548
C       1.782346   -0.504607   -0.376551
C       3.306906   -0.678813   -0.317302
C       1.146878   -0.766263    0.977483
C      -0.266764   -1.209642    1.132334
C       0.853591   -2.178976    1.508360
C       1.092346   -3.426539    0.680651
C       1.080355   -2.335893    2.971488
O       0.889255   -1.475261    3.799155
H       1.784398    1.668807   -0.178625
H       1.836845    1.101746   -1.853764
H       0.321415    1.024661   -0.936562
H       1.380826   -1.224786   -1.100654
H       3.749605    0.021839    0.400171
H       3.584007   -1.690905   -0.007291
H       3.763568   -0.486987   -1.293744
H       1.494929   -0.099634    1.764407
H      -0.848930   -0.803585    1.952081
H      -0.828135   -1.459451    0.236889
H       0.432901   -4.239564    1.005286
H       0.895660   -3.254987   -0.379528
H       2.124763   -3.782296    0.772989
H       1.458324   -3.339414    3.275351
