13

N      -0.041159    1.215158    0.526888
C      -0.009979    0.027367    0.076720
N       1.133325   -0.656956   -0.343354
C       1.131108   -1.947251   -0.826439
N       0.079926   -2.666876   -0.945843
N      -1.085349   -2.062377   -0.552898
C      -1.272587   -0.782681   -0.047204
N      -2.389529   -0.276776    0.301087
H       0.891878    1.632556    0.550439
H       2.011981   -0.164519   -0.285010
H       2.086974   -2.362802   -1.118594
H      -1.895698   -2.651946   -0.658553
H      -3.156098   -0.939131    0.161869
