21

C       0.027356    1.570455   -0.065385
C      -0.027797    0.074807    0.119848
O       1.188959   -0.657776   -0.075628
C       0.609733   -0.632846    1.239301
C       1.439201    0.056485    2.331122
C       1.627071   -1.038731    3.350543
C       0.931005   -2.134138    3.051825
C       0.112709   -1.985612    1.789570
C      -1.399899   -2.046432    2.067027
H       0.899727    2.002229    0.430205
H       0.080458    1.820919   -1.130097
H      -0.874743    2.039289    0.343299
H      -0.895792   -0.401907   -0.341166
H       2.384047    0.420818    1.912782
H       0.926237    0.928240    2.760681
H       2.260400   -0.917024    4.222244
H       0.906525   -3.041355    3.646309
H       0.363404   -2.762048    1.055488
H      -1.708400   -1.241482    2.742212
H      -1.981666   -1.961604    1.144113
H      -1.666362   -2.997365    2.540299
