18

C       0.051087    1.516482    0.018275
C      -0.039060    0.029128   -0.002393
C      -1.099541   -0.780315   -0.080320
C      -0.675334   -2.227769   -0.063717
C      -1.076520   -3.002752   -1.320247
O      -0.553442   -4.314635   -1.175338
N       0.759675   -2.116040    0.071324
C       1.204077   -0.815063    0.060698
O       2.355947   -0.431939    0.092277
H       0.694946    1.870529   -0.793929
H      -0.931062    1.985919   -0.076278
H       0.518051    1.859523    0.948148
H      -2.140670   -0.487175   -0.140786
H      -1.109805   -2.755944    0.799318
H      -2.174190   -3.012423   -1.409191
H      -0.662126   -2.493670   -2.202387
H      -0.687131   -4.790687   -1.999847
H       1.374351   -2.906893   -0.023147
