19

O       0.145060    0.079387   -0.193899
C       0.073101    1.254620    0.017602
C      -1.091744    2.249121    0.117404
C      -0.111507    3.223643    0.850171
C       1.094351    2.326285    0.425569
C      -0.123894    4.662003    0.378611
C       1.079165    5.577120    0.705886
C       1.150209    5.783164   -0.818988
O       0.131703    4.782360   -1.043734
H      -1.368162    2.626013   -0.873522
H      -1.989694    1.909355    0.638215
H      -0.266353    3.201586    1.933598
H       1.838234    2.040773    1.172443
H       1.598355    2.727603   -0.460547
H      -1.092387    5.120049    0.629583
H       0.869448    6.459267    1.311842
H       1.934628    5.043957    1.125785
H       0.825664    6.772457   -1.165668
H       2.093339    5.525027   -1.312893
