24

C       0.245229   -2.854448    0.144474
C      -0.071835   -1.531954    0.852903
C      -1.507951   -1.104864    0.622419
C      -2.596083   -1.492340    1.566986
N      -2.184865   -0.096106    1.436049
C      -1.505618    0.546460    2.559324
C      -2.530776    1.409795    3.307055
C      -1.891684    2.251625    4.402507
O      -3.175834    2.280960    2.396079
H       1.291134   -3.139163    0.291860
H      -0.383586   -3.665994    0.524846
H       0.069919   -2.776799   -0.934011
H       0.127922   -1.632509    1.924553
H       0.602280   -0.748581    0.482352
H      -1.770504   -1.030803   -0.433605
H      -3.592904   -1.737184    1.210209
H      -2.297189   -2.019393    2.472920
H      -1.034661   -0.164065    3.256477
H      -0.722086    1.199563    2.156030
H      -3.270119    0.728229    3.766803
H      -1.135050    2.919854    3.978716
H      -2.650381    2.867301    4.892892
H      -1.418458    1.617680    5.159293
H      -3.303314    1.750442    1.595926
