15

O       0.034219    1.413772    0.006988
C      -0.005044    0.002859    0.002229
C      -1.421958   -0.452164    0.012075
C      -2.544194    0.288462    0.023181
C      -3.755401   -0.574275    0.029695
O      -4.901068   -0.193148    0.040536
C      -3.278828   -2.029174    0.022081
C      -1.759307   -1.910074    0.010618
O      -0.948812   -2.806642    0.001193
H       0.954625    1.691402   -0.000280
H       0.491532   -0.429106   -0.882616
H       0.505816   -0.435473    0.875728
H      -2.598923    1.369072    0.026955
H      -3.632712   -2.572092    0.903924
H      -3.646490   -2.567287   -0.857061
