16

C      -0.156078    1.286465    0.208804
N      -0.164225   -0.128770   -0.113402
C      -1.319230   -0.855101   -0.082409
O      -2.388504   -0.453973    0.319142
N      -1.154203   -2.154301   -0.637800
C      -0.257593   -3.156413   -0.095941
C      -1.755437   -3.321672   -0.025653
C      -2.390418   -3.262102    1.272871
N      -2.895861   -3.295601    2.311529
H       0.726680    1.535338    0.804851
H      -0.165220    1.914534   -0.690426
H      -1.054309    1.497863    0.789220
H       0.612896   -0.509093   -0.628611
H       0.308343   -3.740125   -0.816782
H       0.249703   -2.939381    0.840867
H      -2.248233   -3.996607   -0.720064
