19

C       0.046953    1.481705   -0.016521
C      -0.050477   -0.019391   -0.004625
O       0.611379   -0.578817   -1.124720
C       0.155174   -1.948508   -1.228969
C      -0.738349   -2.110757    0.004626
C       0.170753   -1.940967    1.236443
O       0.517837   -0.535439    1.209240
C      -1.423821   -0.720481   -0.006924
O      -2.245704   -0.407325    1.087624
H       1.086356    1.789664    0.118164
H      -0.316547    1.868298   -0.970817
H      -0.555583    1.902357    0.791752
H      -0.393483   -2.083498   -2.170091
H       1.021991   -2.618870   -1.229705
H      -1.383666   -2.987974    0.013265
H      -0.343042   -2.168896    2.177079
H       1.080697   -2.548525    1.178530
H      -1.995878   -0.535521   -0.919073
H      -1.661065   -0.237064    1.836936
