23

C      -0.695751    1.208877    0.060074
C       0.003889   -0.142141   -0.061231
C       1.075657   -0.222857   -1.169873
C       2.043076   -1.365019   -0.751398
C       1.555524   -1.842799    0.637457
C       0.747218   -0.649940    1.219864
C       1.699963    0.411780    1.815477
C      -0.198366   -1.079197    2.247065
C      -0.982951   -1.424956    3.091172
H       0.019676    2.023160    0.215584
H      -1.256169    1.436111   -0.852851
H      -1.402875    1.211485    0.895880
H      -0.760851   -0.900269   -0.273247
H       0.618024   -0.399237   -2.147494
H       1.610469    0.730147   -1.247611
H       2.042753   -2.188723   -1.470121
H       3.073089   -1.000255   -0.700676
H       0.885581   -2.701575    0.532277
H       2.370244   -2.148552    1.299650
H       2.413212    0.767873    1.066282
H       1.147104    1.272691    2.198545
H       2.266354   -0.017965    2.646359
H      -1.673300   -1.735125    3.835852
