17

O       0.158406    1.376699   -0.059879
C       0.024729   -0.004939    0.038699
C      -0.436375   -0.712275    1.289583
C      -1.201079    0.149187    2.276141
O      -2.130526    0.908473    1.491313
C      -2.530148    0.093022    0.372716
C      -3.029303    0.952887   -0.694524
C      -3.462358    1.629010   -1.587589
C      -1.294748   -0.734860    0.028346
H      -0.615524    1.780440    0.355610
H       0.826757   -0.489067   -0.509148
H       0.078626   -1.591836    1.659179
H      -1.729813   -0.474987    3.011582
H      -0.581409    0.873700    2.813530
H      -3.338207   -0.588367    0.685200
H      -3.832389    2.235336   -2.377383
H      -1.437092   -1.623568   -0.575070
