22

C      -0.142947    1.551449   -0.026529
C       0.077668    0.034925   -0.055550
C       0.733289   -0.513937    1.209577
O       2.034066    0.037999    1.404616
C      -0.091457   -0.513347    2.535164
C       0.466771   -1.932297    2.844919
C      -0.471671   -2.972058    3.435349
C       0.872360   -2.051022    1.348011
H       0.807611    2.091968    0.041865
H      -0.642591    1.895340   -0.936772
H      -0.764901    1.849481    0.825243
H      -0.883370   -0.473301   -0.200396
H       0.710090   -0.231132   -0.911775
H       1.928742    0.969438    1.624783
H       0.125080    0.287417    3.248584
H      -1.170238   -0.534654    2.345231
H       1.366772   -1.845482    3.460436
H      -1.379988   -3.073559    2.829375
H       0.005519   -3.957477    3.484767
H      -0.779531   -2.701500    4.451891
H       0.114780   -2.580238    0.760707
H       1.859644   -2.453890    1.112713
