17

C      -0.031646    1.505889    0.084881
O       1.224068    1.942901   -0.433284
C       2.110661    0.840732   -0.621621
C       1.276513   -0.390949   -0.393947
C       1.595427   -1.736211   -0.528046
C       0.617055   -2.687421   -0.237696
C      -0.654371   -2.292661    0.181603
C      -0.968420   -0.940171    0.317474
C       0.008466    0.002763    0.024237
H      -0.166083    1.872317    1.115444
H      -0.837801    1.938295   -0.523779
H       2.532033    0.892008   -1.635103
H       2.952148    0.904149    0.087095
H       2.583117   -2.047518   -0.853748
H       0.845923   -3.743016   -0.340034
H      -1.405233   -3.044063    0.402365
H      -1.958489   -0.637411    0.644009
