17

O       0.054583   -0.001161   -0.487566
C      -0.002381    1.137670   -0.051731
N      -1.198118    1.761222    0.156369
C      -1.469149    3.155931    0.519702
C      -0.825565    4.157122   -0.416053
C       0.482780    4.208406   -0.667503
C       1.514799    3.326167   -0.067393
N       1.329725    2.870336    1.320212
C       1.278743    1.869515    0.250347
H      -1.977549    1.198308   -0.150023
H      -2.554812    3.272060    0.490089
H      -1.147919    3.340188    1.547805
H      -1.484623    4.857623   -0.920569
H       0.855912    4.937492   -1.381814
H       2.532695    3.550261   -0.376727
H       2.221583    2.820333    1.803715
H       2.125691    1.202981    0.116937
