16

C      -0.060163    1.648513    0.005034
C       0.065899    0.132417    0.037110
C       1.120105   -0.577210   -0.804896
N       1.386548   -0.565968   -2.028274
N       1.683260   -1.360351    0.296651
C       2.202216   -0.353239    1.255169
C       0.739015   -0.575458    1.233089
C       0.031453   -1.209268    2.302416
N      -0.565088   -1.683830    3.172390
H       0.887407    2.142664    0.236502
H      -0.368282    1.968968   -0.994027
H      -0.811129    1.991620    0.722649
H      -0.905753   -0.333948   -0.157055
H       2.140639   -1.222110   -2.247670
H       2.762376   -0.801434    2.068729
H       2.608604    0.578219    0.870623
