25

C       0.011562    1.496515   -0.295711
C      -0.034510   -0.009356   -0.018163
C       0.507337   -0.354310    1.365576
O      -1.373506   -0.494101   -0.067291
C      -1.877721   -0.820000   -1.360555
C      -1.472374   -2.244438   -1.753733
C      -3.378982   -0.654578   -1.313887
C      -3.997852    0.704780   -1.486548
C      -4.143403   -0.332750   -2.572980
H       1.042624    1.864968   -0.272512
H      -0.404862    1.734772   -1.279287
H      -0.568182    2.036254    0.459805
H       0.575356   -0.528104   -0.774864
H      -0.106045    0.120474    2.138168
H       0.482287   -1.435076    1.528012
H       1.538287   -0.005458    1.479670
H      -1.478320   -0.112986   -2.105844
H      -1.859511   -2.497117   -2.745764
H      -0.384337   -2.358747   -1.775323
H      -1.875078   -2.960393   -1.030296
H      -3.865144   -1.321623   -0.606651
H      -4.868061    0.954335   -0.889892
H      -3.332211    1.541983   -1.669807
H      -3.578380   -0.189133   -3.488848
H      -5.111827   -0.797262   -2.722010
