17

O       0.138200    1.308069   -0.109987
C       0.098382   -0.059745    0.002420
C      -0.145540   -0.953657   -1.195771
C      -1.060702   -1.040997    0.024769
C      -0.046555   -2.083977    0.580824
C       0.706050   -2.185225   -0.801094
C       2.014448   -1.651323   -0.159805
C       1.045575   -0.958949    0.830998
O       1.403247   -0.413858    2.055273
H       0.011157    1.673677    0.773382
H      -0.363487   -0.544110   -2.173547
H      -2.130628   -0.910526    0.111153
H      -0.237502   -2.914520    1.256327
H       0.689818   -3.071612   -1.432568
H       2.581496   -2.458218    0.320081
H       2.683662   -1.026079   -0.758603
H       1.931194   -1.057082    2.539085
