15

C      -0.014291    1.491285   -0.201994
C      -0.016649    0.015624    0.153799
O      -0.035968   -0.411365    1.277999
N       0.006451   -0.813168   -0.982013
C       0.011386   -2.186169   -1.031086
O      -0.003298   -2.968884   -0.110565
C       0.039524   -2.658247   -2.508724
N       0.044963   -3.997843   -2.599277
O       0.053872   -1.862211   -3.433057
H       0.879789    1.748510   -0.779822
H      -0.887349    1.743382   -0.813252
H      -0.033351    2.074069    0.717884
H       0.022179   -0.396046   -1.907322
H       0.031127   -4.532482   -1.744365
H       0.062562   -4.448453   -3.498144
