22

C      -0.020110    1.474909    0.077999
C      -0.015547    0.019230    0.029464
C      -0.010104   -1.185084    0.002066
C      -0.009105   -2.646906   -0.063859
C      -1.444758   -3.203076   -0.130218
C       0.869367   -3.115091   -1.245421
N       1.036578   -4.564213   -1.247898
C       0.210619   -5.332147   -2.176361
C       1.660437   -5.130904   -2.438592
H       0.998550    1.878416    0.061481
H      -0.557966    1.902200   -0.775764
H      -0.504925    1.841675    0.989709
H       0.461875   -3.040568    0.846872
H      -1.433485   -4.295438   -0.108226
H      -2.032087   -2.845914    0.719695
H      -1.946486   -2.874630   -1.046418
H       0.440969   -2.738046   -2.191739
H       1.861118   -2.663133   -1.138289
H      -0.158288   -6.285043   -1.807306
H      -0.488546   -4.786542   -2.808155
H       1.927890   -4.450769   -3.246178
H       2.372926   -5.932186   -2.263821
