19

C      -0.214966    1.478790    0.141736
C       1.174034    0.956618   -0.129205
C       0.033009   -0.004024    0.000559
C      -0.144642   -0.957083    1.171153
O      -1.307294   -1.712156    0.845261
C      -1.270476   -1.959742   -0.551854
C      -0.493393   -0.793710   -1.175777
C      -0.733056   -0.272878   -2.522205
O       0.390957   -1.119956   -2.255347
H      -0.436521    1.859366    1.133870
H      -0.739117    1.990401   -0.658412
H       1.597485    1.087040   -1.119642
H       1.902889    0.991177    0.674197
H       0.731853   -1.618952    1.275419
H      -0.321666   -0.459208    2.128191
H      -0.740458   -2.896200   -0.785884
H      -2.301182   -2.041184   -0.908348
H      -1.517290   -0.710842   -3.139702
H      -0.490625    0.762446   -2.762737
