16

C       0.141428    1.532269   -0.106461
N       1.543115    1.462851    0.377189
C       1.510985   -0.022722    0.463285
C      -0.022670    0.000726    0.079430
N       0.335320   -0.791685   -1.114655
C       0.184074   -1.048083   -2.460076
C       1.480947   -1.236632   -2.900674
N       2.421992   -1.012767   -1.905644
C       1.672108   -0.756029   -0.860427
H      -0.490717    2.128498    0.559575
H      -0.005599    1.870862   -1.137218
H       2.241480    1.819274   -0.266210
H       1.934060   -0.442846    1.375605
H      -0.840073   -0.390045    0.682358
H      -0.766256   -1.163394   -2.953389
H       1.789114   -1.549908   -3.887873
