16

O      -0.126155    1.493593    0.058038
C       0.035449    0.083879    0.039547
C      -1.365787   -0.508935   -0.069238
C      -1.385722   -2.057529   -0.008719
O      -0.753861   -2.539052    1.178042
C      -2.768794   -2.544660   -0.102778
C      -3.911997   -2.911374   -0.119136
C      -0.600086   -2.615232   -1.137757
N       0.008384   -3.014854   -2.033681
H       0.747010    1.893468    0.105922
H       0.646015   -0.240915   -0.815986
H       0.519428   -0.283981    0.954500
H      -1.980634   -0.141878    0.759109
H      -1.839808   -0.178407   -0.998308
H      -1.410403   -2.501797    1.883149
H      -4.918958   -3.250185   -0.149330
