16

O       0.136298    1.363768    0.107947
C       0.084460   -0.012007    0.087651
C       0.960309   -0.753042    1.080224
C       0.591297   -2.222854    0.710302
C      -0.417651   -1.988769   -0.416331
C      -1.289300   -0.754458   -0.075391
O      -1.346014   -0.341301   -1.491766
C       0.045152   -0.787009   -1.277215
H      -0.477666    1.656572   -0.581707
H       2.019569   -0.525453    0.931105
H       0.708090   -0.493460    2.112245
H       1.457219   -2.798029    0.370045
H       0.147515   -2.766078    1.549580
H      -0.892069   -2.828617   -0.920355
H      -2.205269   -0.680223    0.512506
H       0.726853   -0.751747   -2.128198
