17

C       0.086913    1.534642    0.001053
C      -0.225958    0.117735    0.439347
O       1.024155   -0.545059    0.717789
C       0.918894   -1.822495    1.129488
C       1.042909   -2.359581    2.359132
N       0.884008   -3.744205    2.212577
C       0.684134   -4.099324    0.887471
O       0.554605   -5.208727    0.409894
N       0.669271   -2.867775    0.232055
H       0.707057    1.532379   -0.899615
H      -0.840080    2.072954   -0.216741
H       0.624580    2.071010    0.787628
H      -0.843797    0.101140    1.346474
H      -0.765913   -0.430208   -0.344376
H       1.212691   -1.886065    3.309243
H       0.991411   -4.436445    2.931940
H       0.674042   -2.795867   -0.770404
