21

C      -0.050101    1.125882    0.639671
C      -0.315926   -0.381153    0.743001
C      -1.522647   -0.781016   -0.070697
O      -1.358541   -0.859111   -1.492252
C      -1.699906   -2.058195   -0.787555
C      -0.709101   -3.182814   -0.850593
O       0.312493   -3.301589    0.143934
C      -0.712211   -4.301291    0.107673
C      -1.638282   -4.381089    1.294333
H       0.823384    1.410276    1.233512
H       0.136957    1.414148   -0.399267
H      -0.904188    1.710129    1.000503
H       0.553961   -0.949745    0.411280
H      -0.493662   -0.660930    1.789288
H      -2.446226   -0.272329    0.222420
H      -2.726808   -2.385045   -0.973659
H      -0.359626   -3.385349   -1.865044
H      -0.360619   -5.265648   -0.264117
H      -1.986171   -3.390474    1.595538
H      -2.509725   -5.000914    1.056763
H      -1.125057   -4.838924    2.146136
