20

C       0.096249    1.357892   -0.536744
C       1.395955    1.648998    0.262783
C       1.365679    0.176755    0.767452
C      -0.114730    0.090454    0.337237
C       2.319788   -0.768187    0.045889
C       3.744713   -0.541042    0.559848
N       3.822277   -0.519420    2.016947
C       2.759240   -0.269143    2.653225
O       1.519547    0.026532    2.187392
H      -0.686076    2.117517   -0.501740
H       0.295389    1.115537   -1.583446
H       2.282035    1.971670   -0.290299
H       1.221725    2.338545    1.092015
H      -0.764753    0.287162    1.193292
H      -0.436059   -0.832311   -0.152532
H       2.013037   -1.801270    0.250145
H       2.255859   -0.615353   -1.036523
H       4.414510   -1.326568    0.193837
H       4.149201    0.405077    0.173505
H       2.748671   -0.271552    3.742000
