15

O      -0.112315    1.319414   -0.062058
C       0.018321   -0.048631   -0.039193
C       0.852085   -0.910106   -0.991579
C      -0.005974   -2.102794   -0.465803
O      -0.211046   -3.250011   -1.184819
C      -1.088658   -1.028434    0.048252
C      -0.157716   -0.846623    1.275270
C       0.403881   -2.213212    1.022907
O       0.802067   -3.109205    1.708955
H       0.669057    1.709614    0.346423
H       0.607526   -0.674841   -2.033930
H       1.937840   -0.970596   -0.857379
H      -0.298962   -3.028658   -2.118070
H      -2.165808   -0.978647    0.021140
H      -0.398993   -0.350387    2.204747
