16

C      -0.086653    1.624038   -0.058552
C       0.125972    0.127475   -0.010113
O      -0.960351   -0.567663   -0.592709
C       1.413500   -0.659863   -0.216749
C       2.657464   -0.164734    0.578722
O       2.353814    1.038930    1.300723
C       1.921785   -0.219864    1.838334
C       0.640663   -0.729007    1.114640
H      -0.154904    1.949253   -1.105583
H      -1.037782    1.865514    0.427370
H       0.718833    2.171315    0.420861
H      -1.060206   -0.237226   -1.492582
H       1.465641   -1.429614   -0.975736
H       3.697474   -0.349817    0.337260
H       2.228023   -0.460839    2.849201
H       0.046939   -1.555339    1.483009
