15

N      -0.054985    1.357835    0.130565
C       0.003658   -0.023169    0.062653
N      -1.085326   -0.770855    0.049897
N      -0.599652   -2.062302    0.034630
C       0.744869   -2.122254    0.041893
N       1.455825   -3.308760    0.103609
C       1.204792   -0.805366    0.047091
C       2.541587   -0.373422    0.014888
C       3.690401   -0.003289   -0.029229
H       0.729743    1.820075   -0.306355
H      -0.941622    1.731999   -0.177627
H      -1.245865   -2.822533    0.149991
H       1.117873   -4.035096   -0.514654
H       2.446636   -3.155348   -0.034698
H       4.698858    0.326986   -0.039865
