23

C      -0.039004    1.468331    0.155207
C      -0.036386   -0.055355   -0.006693
C       0.706810   -0.549036   -1.250480
C       2.226522   -0.233098   -1.276394
C       2.857862   -1.311957   -2.154860
C       3.136923   -2.651397   -1.510348
O       3.047438   -2.816147   -0.124400
C       1.859430   -2.460030   -2.273200
C       0.615669   -2.081732   -1.469612
H       0.977210    1.863661    0.256552
H      -0.498058    1.957295   -0.711761
H      -0.601535    1.772531    1.043596
H       0.414360   -0.521179    0.880364
H      -1.072886   -0.415465   -0.044651
H       0.263100   -0.065801   -2.133071
H       2.432677    0.765437   -1.670645
H       2.633377   -0.266035   -0.257165
H       3.477274   -1.012530   -2.993503
H       3.898655   -3.270855   -1.984702
H       3.813785   -2.392713    0.276675
H       1.738567   -3.008248   -3.200843
H       0.604044   -2.604025   -0.507037
H      -0.298877   -2.358017   -2.002138
