21

C      -0.024244    1.497559    0.380486
C       1.449433    1.639046   -0.108696
C       1.455193    0.138897   -0.533286
C      -0.023259   -0.003048   -0.042520
C      -0.700502   -0.361128   -1.359454
C      -0.064047    0.474480   -2.520137
C      -0.266770   -0.722740   -3.477131
C       0.232361   -1.343001   -2.152873
C       1.268338   -0.172102   -2.013002
H      -0.148483    1.657244    1.454142
H      -0.756793    2.120578   -0.140501
H       1.609846    2.347797   -0.926099
H       2.156534    1.878550    0.688999
H       2.216588   -0.483223   -0.056510
H      -0.232740   -0.718382    0.756534
H      -1.779518   -0.532376   -1.375082
H      -0.236484    1.531306   -2.733939
H      -1.296057   -0.949236   -3.770812
H       0.407611   -0.785667   -4.336335
H       0.407844   -2.397730   -1.929281
H       2.137267   -0.156326   -2.675241
