15

C      -0.054460    1.554693   -0.005681
C       1.452938    1.891917   -0.032386
N       2.198420    1.444906    1.157092
C       2.270776    0.632944   -0.090087
C       1.242064   -0.425642   -0.076439
C      -0.027341    0.047364    0.004985
C      -0.797720   -1.137607    0.078289
N      -0.042812   -2.216675    0.020942
O       1.286850   -1.754424   -0.068910
H      -0.531611    1.986956    0.880015
H      -0.560671    1.964244   -0.887493
H       1.781186    2.792044   -0.540984
H       3.052237    1.995137    1.236075
H       3.204005    0.544537   -0.632376
H      -1.867727   -1.273157    0.154835
