16

O      -0.085993    1.296055   -0.023589
N       0.014379   -0.089412   -0.002773
C      -1.117728   -0.669874    0.017068
C      -1.316382   -2.164502    0.042436
C      -2.463635   -2.322785   -1.009747
C      -3.292448   -1.522796    0.051081
C      -2.443443   -2.289305    1.120625
C      -2.562156   -0.178896    0.023032
O      -3.008886    0.935336    0.009789
H       0.838934    1.567582   -0.036612
H      -0.424310   -2.786125    0.043751
H      -2.321843   -1.882934   -1.999851
H      -2.807040   -3.356318   -1.094276
H      -4.379070   -1.485845    0.060800
H      -2.784875   -3.319570    1.244079
H      -2.283045   -1.818604    2.093555
