21

C       0.249649    1.305793    0.168550
O       0.089179   -0.083403    0.001050
C      -1.266126   -0.506642   -0.070160
C      -1.274937   -1.856952   -0.793555
C      -2.668533   -2.337740   -1.205070
O      -3.495888   -2.748971   -0.134640
C      -4.048076   -1.700612    0.642220
C      -3.088832   -1.046379    1.614831
C      -1.894350   -0.545030    1.308076
H       1.323576    1.506765    0.191458
H      -0.200358    1.868488   -0.665068
H      -0.194771    1.674143    1.105522
H      -1.828876    0.212724   -0.696008
H      -0.666547   -1.747382   -1.698790
H      -0.797230   -2.613313   -0.162790
H      -3.176080   -1.553612   -1.794765
H      -2.568093   -3.216405   -1.850047
H      -4.490675   -0.937379   -0.023695
H      -4.873131   -2.156181    1.197437
H      -3.422918   -0.997322    2.648366
H      -1.278551   -0.123363    2.098833
