21

C       0.017247    1.553539    0.009719
C       0.005504    0.023566   -0.005832
C       0.684012   -0.527901   -1.262597
O       0.536790   -1.934719   -1.382625
C       0.890107   -2.674544   -0.250111
C       2.220584   -2.525476    0.459711
C       0.946249   -2.066588    1.128436
O       0.555768   -2.861165    2.219753
C       0.670560   -0.567868    1.253020
H       1.043146    1.939679   -0.015150
H      -0.517081    1.967951   -0.851619
H      -0.458000    1.940541    0.916952
H      -1.036246   -0.324047   -0.039660
H       0.227512   -0.112492   -2.165939
H       1.749753   -0.241860   -1.272652
H       0.496417   -3.682086   -0.333060
H       2.675212   -3.434670    0.836131
H       2.919802   -1.763514    0.132314
H      -0.407596   -2.888365    2.236619
H       1.601132   -0.026191    1.467708
H       0.022845   -0.414330    2.122870
