15

O       0.746500    1.637176   -0.255350
C       0.187118    0.356367    0.014900
C       0.466443   -0.608385   -1.059791
C       0.712369   -1.374505   -1.951434
C       0.612179   -0.176133    1.317531
C       0.987796   -0.591972    2.383523
C       1.418891   -1.063277    3.671268
C       1.604564   -2.503337    3.944090
O       2.726706   -1.652946    3.757227
H       1.704583    1.530301   -0.287952
H      -0.895474    0.535869    0.049014
H       0.924716   -2.054949   -2.739043
H       1.172939   -0.416882    4.512831
H       1.450985   -2.871282    4.957733
H       1.416619   -3.217639    3.145099
