19

O       0.128889   -0.162829    0.178565
C       0.075915    1.039544    0.112911
C       1.283247    1.944780    0.059131
C       1.255216    2.940640   -1.155767
C       1.369595    4.328342   -0.479133
C       0.060438    4.582191    0.281802
O       0.098103    3.622962    1.360046
C       1.355727    2.941308    1.251199
C       2.300594    4.022149    0.712686
H      -0.899870    1.571396    0.082737
H       2.170594    1.306307    0.043659
H       2.094740    2.747562   -1.827989
H       0.337047    2.851293   -1.746408
H       1.662356    5.139559   -1.146377
H       0.003999    5.595997    0.698773
H      -0.831646    4.409056   -0.332299
H       1.584352    2.488255    2.215850
H       3.281622    3.641440    0.418284
H       2.419118    4.856509    1.408710
