23

O      -0.114611    1.517013    0.118458
C       0.041124    0.105797    0.064293
C      -1.348990   -0.507687   -0.054734
C      -1.367351   -2.048953   -0.077774
C      -2.789977   -2.582184    0.169656
C      -2.886263   -4.088047   -0.098276
C      -2.544023   -4.405808   -1.560787
C      -1.336612   -3.637610   -2.030335
C      -0.806325   -2.610622   -1.366199
H       0.760028    1.914064    0.161198
H       0.670004   -0.186079   -0.791172
H       0.534819   -0.275077    0.974140
H      -1.940652   -0.152924    0.798004
H      -1.832988   -0.115464   -0.957384
H      -0.728076   -2.393859    0.752592
H      -3.096489   -2.350820    1.196115
H      -3.487409   -2.051145   -0.492937
H      -2.183952   -4.616116    0.559828
H      -3.886819   -4.459776    0.147622
H      -2.371709   -5.482292   -1.687536
H      -3.400952   -4.170846   -2.210243
H      -0.884778   -3.958028   -2.966859
H       0.080865   -2.126264   -1.768069
