14

N       0.477135    0.353718    1.032458
C      -0.043466    0.177209   -0.210700
O       0.486932    0.529175   -1.248372
C      -1.350606   -0.534953   -0.233633
O      -2.096734   -0.780395    0.964520
C      -1.729801   -1.900767    0.168293
C      -2.712059   -1.987239   -1.069283
O      -3.633453   -0.906013   -0.973240
C      -2.326461   -0.635581   -1.469992
H       1.323127    0.891316    1.124782
H      -0.093180    0.174687    1.842188
H      -1.140792   -2.691698    0.616074
H      -2.985922   -2.866247   -1.637726
H      -2.198407   -0.163381   -2.433871
