20

C       0.031400    1.567094   -0.021525
C       0.114118    0.075341    0.025384
N      -0.836224   -0.759658    0.801919
C       0.635068   -0.864037    1.037317
C       1.260041   -1.766973   -0.060261
C       0.279326   -2.260140   -1.095450
C      -1.100639   -2.904038   -0.923164
O      -1.193967   -4.101947   -1.695518
C       0.698449   -0.808534   -1.117665
H       0.969727    2.001655   -0.383230
H      -0.769675    1.899005   -0.693205
H      -0.168177    1.980905    0.973089
H      -1.210177   -0.170022    1.546547
H       1.054822   -0.680491    2.018353
H       2.270390   -2.149083    0.020133
H       0.811324   -2.786146   -1.889168
H      -1.323079   -3.092792    0.130043
H      -1.881590   -2.242931   -1.305513
H      -0.644180   -4.765273   -1.267277
H       1.216401   -0.375240   -1.965202
