19

C      -0.056833    1.540867   -0.067022
C      -0.076633    0.048930   -0.016027
O       0.648049   -0.645186   -1.040584
C      -0.316713   -1.744092   -1.005214
C       0.330403   -3.014714   -0.463516
C       1.213988   -2.649655    0.736656
O       0.564744   -1.819950    1.699318
C      -0.274462   -0.817912    1.208498
C      -1.181325   -1.011481    0.026095
H       0.964417    1.912654    0.073768
H      -0.421127    1.904381   -1.033367
H      -0.683011    1.962618    0.724392
H      -0.777283   -1.873363   -1.988297
H      -0.458632   -3.721400   -0.180042
H       0.954916   -3.498370   -1.222702
H       1.516680   -3.547616    1.283029
H       2.116958   -2.147724    0.370255
H      -0.720454   -0.289856    2.046635
H      -2.262918   -0.956747    0.036846
