19

C      -0.096635    1.573436   -0.244848
C      -0.076051    0.134675    0.283988
C      -1.418343   -0.550148    0.146269
C      -1.816096   -1.224789   -1.131809
C      -1.538524   -2.074408    0.106480
C      -0.383958   -2.911969    0.164663
C       0.583760   -3.639651    0.231193
C       1.672114   -4.451488    0.297620
C       2.638998   -5.173758    0.357687
H       0.882120    2.048711   -0.129162
H      -0.361225    1.599540   -1.307043
H      -0.829282    2.184527    0.293871
H       0.684028   -0.448227   -0.247839
H       0.224085    0.132652    1.339325
H      -2.225820   -0.068423    0.693109
H      -2.844210   -1.166459   -1.470845
H      -1.078361   -1.275368   -1.925234
H      -2.414725   -2.486242    0.599941
H       3.488160   -5.808440    0.409535
