19

C      -1.378095    0.260994   -0.074937
O       0.048428    0.171279   -0.099825
C       0.557178   -0.663930   -1.037817
C       0.552285   -2.044921   -1.141107
C      -0.083843   -3.032987   -0.213010
C       1.313055   -2.276627   -2.307403
N       1.755386   -1.154651   -2.869984
N       1.276180   -0.167862   -2.082516
C       1.579595    1.216085   -2.368464
H      -1.766232    0.626731   -1.033132
H      -1.834379   -0.709007    0.149720
H      -1.628039    0.970694    0.715935
H      -1.107194   -3.295231   -0.510725
H       0.489135   -3.964767   -0.182753
H      -0.129471   -2.641175    0.808234
H       1.566730   -3.229809   -2.750835
H       1.132078    1.518807   -3.319714
H       1.177197    1.828458   -1.561198
H       2.661844    1.356461   -2.428745
