25

C      -0.098173    1.565070   -0.068069
C       0.061078    0.043234   -0.003815
C       0.685865   -0.529550   -1.287133
C       0.824903   -2.049456   -1.186098
O       1.521777   -2.442982   -0.017192
C       0.877367   -2.006536    1.176435
C       1.588404   -2.686885    2.338427
C       0.837616   -0.461200    1.242756
C       2.240183    0.147469    1.396156
H       0.855516    2.068847   -0.255514
H      -0.779219    1.847218   -0.878281
H      -0.508674    1.962825    0.866857
H      -0.949634   -0.385516    0.078685
H       0.068717   -0.275244   -2.157789
H       1.673381   -0.083444   -1.456156
H      -0.177444   -2.513918   -1.196785
H       1.389024   -2.456261   -2.031015
H      -0.170775   -2.358533    1.155311
H       2.654855   -2.447964    2.341003
H       1.157030   -2.371136    3.293590
H       1.487906   -3.772264    2.253866
H       0.247322   -0.189565    2.129415
H       2.915585   -0.206359    0.612396
H       2.209927    1.239348    1.355460
H       2.681356   -0.125652    2.358700
