19

O      -0.171078    1.463842   -0.010172
C       0.019814    0.058872    0.079120
C      -1.349062   -0.592509   -0.038398
C      -2.061842   -0.419476   -1.423008
C      -2.304104   -1.906815   -1.717647
O      -2.753745   -2.424484   -0.411887
C      -1.370646   -2.133410   -0.005042
C      -0.939864   -2.585331   -1.428607
O      -0.909190   -3.971060   -1.619733
H       0.689635    1.889441    0.043495
H       0.689698   -0.298651   -0.719089
H       0.481544   -0.218959    1.040949
H      -1.977633   -0.206947    0.768993
H      -2.994966    0.141047   -1.350519
H      -1.424880    0.064938   -2.168620
H      -2.938613   -2.202352   -2.553542
H      -1.054984   -2.659082    0.897211
H      -0.034618   -2.171650   -1.878687
H      -1.720815   -4.310353   -1.219031
