23

C      -0.132413    1.620656    0.070750
C      -0.003134    0.097889   -0.029794
C       0.754276   -0.505105    1.159835
C       0.806301   -2.050355    1.169159
C       1.620919   -2.629064   -0.012419
O       1.673583   -4.038866    0.006703
C       1.364984   -2.556288    2.425101
C       1.864186   -2.987127    3.434865
C       2.442701   -3.490637    4.673666
H       0.852129    2.100350    0.102673
H      -0.675140    2.031794   -0.785979
H      -0.670876    1.912800    0.979106
H      -1.003215   -0.352217   -0.086624
H       0.499952   -0.158245   -0.969689
H       1.780061   -0.114863    1.187758
H       0.279761   -0.174799    2.091271
H      -0.219114   -2.434314    1.070023
H       1.147224   -2.355138   -0.959053
H       2.629065   -2.182446    0.002714
H       1.984187   -4.290367    0.885548
H       2.043949   -4.478764    4.928416
H       3.531912   -3.581464    4.598906
H       2.224344   -2.820038    5.512050
