17

C       0.032819    1.437213   -0.024479
N       0.014244   -0.015270   -0.004817
C       0.016819   -0.855323   -1.118234
C       0.038912   -0.406264   -2.495798
O       0.040231   -1.149237   -3.456196
C      -0.005664   -2.134725   -0.593050
N      -0.021254   -2.104987    0.763843
C      -0.008828   -0.817550    1.094985
C      -0.019132   -0.318162    2.501664
H       0.933349    1.809658   -0.521370
H      -0.845034    1.832020   -0.544140
H       0.024335    1.808395    1.000101
H       0.054070    0.698664   -2.635758
H      -0.010786   -3.058374   -1.151322
H       0.870020    0.278070    2.735706
H      -0.899614    0.298212    2.715516
H      -0.036588   -1.184494    3.163289
