14

N      -0.087839    1.058534    0.295850
C      -0.162369   -0.279336    0.042053
O       0.711626   -1.070699    0.312777
C      -1.452536   -0.696276   -0.687250
O      -1.511330   -2.109960   -0.810067
C      -1.839427   -2.771881    0.318820
O      -2.180403   -2.267973    1.351358
C      -1.732781   -4.280430    0.057154
O      -2.050673   -5.087503    0.882619
H       0.688621    1.378906    0.852975
H      -0.902490    1.647651    0.252663
H      -2.330893   -0.324338   -0.150589
H      -1.449860   -0.303513   -1.706640
H      -1.341162   -4.546272   -0.944268
