14

O       0.005681    1.463596   -0.123328
C       0.001484    0.105918    0.018433
C      -0.190594   -0.792102   -1.179293
C      -1.147192   -0.923109   -0.008344
N      -0.448729   -1.588368    1.107725
N      -0.163666   -2.789384    1.642130
N       1.038572   -2.658905    2.147780
C       1.576960   -1.434379    1.823354
C       0.605769   -0.733560    1.148481
H      -0.288864    1.862875    0.704073
H      -0.612906   -0.287492   -2.044885
H       0.511094   -1.589160   -1.403300
H      -2.221300   -0.813804   -0.037027
H       2.572372   -1.167286    2.135580
