20

C      -0.700503    1.507838    0.206910
C      -0.261289    0.066645    0.014250
C       0.517649   -0.397954   -1.266930
C       0.861355    0.582738   -2.398500
C      -0.337320    0.844503   -3.282104
O      -0.865144    1.915547   -3.437315
C       1.627640   -0.832189   -0.312911
C       2.073362    0.269073    0.560636
N       0.835956   -0.444383    0.924767
H       0.110264    2.227541    0.066967
H      -1.489489    1.765549   -0.506264
H      -1.095602    1.640101    1.219267
H      -1.123427   -0.585878    0.176748
H       0.022645   -1.273031   -1.700332
H       1.237382    1.537463   -2.024359
H       1.642231    0.125191   -3.023141
H      -0.732632   -0.066042   -3.793148
H       2.158861   -1.777217   -0.372650
H       2.886748    0.058411    1.248201
H       2.034774    1.300177    0.221839
