21

C      -0.040976    1.561814   -0.139219
C       1.422303    2.030097    0.099268
C       2.234971    0.738602    0.284592
O       2.265342    0.343564    1.678604
C       1.440506   -0.825579    1.790418
C      -0.021628   -0.405583    1.567357
C      -0.010579    0.034090    0.062269
C       1.421466   -0.395724   -0.381074
C       1.762296   -1.600294    0.505328
H      -0.758403    2.049039    0.527445
H      -0.352078    1.797521   -1.162552
H       1.799927    2.600656   -0.755292
H       1.532600    2.660001    0.985220
H       3.269665    0.831410   -0.063012
H       1.660205   -1.304997    2.745068
H      -0.702615   -1.245954    1.738792
H      -0.310733    0.405626    2.240826
H      -0.801613   -0.467612   -0.500054
H       1.569644   -0.492628   -1.457426
H       2.809227   -1.909546    0.448814
H       1.113459   -2.464970    0.340023
