20

C      -0.080082    1.589819   -0.126238
C      -0.030077    0.077547    0.148363
C      -1.371760   -0.587067    0.060980
C      -2.062962   -1.168473    1.071884
O      -3.266215   -1.662065    0.614450
C      -3.326209   -1.379337   -0.708052
N      -4.429041   -1.867924   -1.384619
C      -5.716043   -1.904962   -0.696381
C      -2.203353   -0.715782   -1.111257
H       0.919177    2.032601   -0.064128
H      -0.478934    1.797566   -1.124193
H      -0.724660    2.095725    0.599235
H       0.659116   -0.392033   -0.565813
H       0.394387   -0.098549    1.143354
H      -1.873245   -1.310589    2.122123
H      -4.485284   -1.484936   -2.317151
H      -5.630041   -2.523475    0.198796
H      -6.082782   -0.912563   -0.392867
H      -6.452431   -2.364802   -1.359487
H      -1.987806   -0.365175   -2.108518
