20

C      -0.168271    1.582006   -0.129560
C       0.025520    0.073210   -0.091771
C       0.718741   -0.635099   -1.267027
C       2.154775   -0.216750   -1.380610
C       1.774608   -1.226620   -0.327172
C       1.117772   -0.550539    0.871228
N       1.969827    0.315903    1.658975
C       1.663342    0.698962    2.925854
O       0.653068    0.384583    3.520459
H       0.761563    2.115659   -0.348922
H      -0.898330    1.858127   -0.897953
H      -0.538560    1.944133    0.834910
H      -0.932149   -0.407910    0.126593
H       0.207620   -1.129388   -2.083934
H       2.694348   -0.629678   -2.226705
H       2.467408    0.791319   -1.119186
H       2.201107   -2.222352   -0.318406
H       0.648702   -1.254646    1.559266
H       2.831346    0.643174    1.251297
H       2.453541    1.338415    3.369172
