18

C      -0.175854    1.696695    0.099826
C       0.031081    0.175786    0.066200
C       0.823932   -0.319799    1.261497
C       1.590508   -1.615012    1.198678
C       2.331698   -0.302323    1.222733
C      -1.310505   -0.543605   -0.021632
F      -2.031244   -0.119560   -1.075143
F      -1.161610   -1.870756   -0.157531
F      -2.056690   -0.336267    1.078232
H       0.793329    2.200561    0.126797
H      -0.725417    2.043397   -0.778269
H      -0.736948    1.990579    0.991955
H       0.565787   -0.096275   -0.852287
H       0.366617   -0.078659    2.216974
H       1.612626   -2.238829    2.084906
H       1.566455   -2.169856    0.267669
H       2.811634    0.025219    0.305930
H       2.864252   -0.023264    2.124811
