21

C      -0.036939    1.508721    0.079715
C      -0.160615   -0.001972    0.164773
O       0.886049   -0.486368    1.007537
C       0.893367   -1.855666    1.144166
C      -0.078033   -2.585278    2.034216
C       1.403382   -2.678636    2.320229
C       2.028770   -3.699512    1.363466
C       1.562621   -2.803895    0.158170
O       0.690204   -3.343592   -0.812807
H       0.930383    1.793216   -0.344283
H      -0.828344    1.920102   -0.554071
H      -0.119234    1.957675    1.073877
H      -1.135286   -0.294991    0.582650
H      -0.081777   -0.461215   -0.830616
H      -0.626631   -1.926915    2.700160
H      -0.630789   -3.452593    1.683406
H       1.833584   -2.328166    3.249348
H       3.115335   -3.784925    1.435797
H       1.582469   -4.698772    1.389150
H       2.423940   -2.308089   -0.309450
H       1.199651   -3.919883   -1.391550
