17

C       0.053913    1.476706    0.004356
O       1.191801    0.587583   -0.001649
C      -0.103481    0.030740    0.014764
C      -0.587598   -0.904714    1.117859
C      -2.059991   -1.026977    0.681865
O      -1.989492   -1.005674   -0.767366
C      -0.611060   -0.897777   -1.076421
O       0.056293   -2.111968   -0.792415
C       0.129246   -2.188741    0.653613
H      -0.083367    2.046418    0.922214
H      -0.101348    2.035449   -0.917141
H      -0.415385   -0.608410    2.151040
H      -2.526170   -1.962803    1.010669
H      -2.672011   -0.185399    1.027515
H      -0.483205   -0.642184   -2.125898
H       1.179829   -2.212300    0.963476
H      -0.370228   -3.102308    0.994329
