23

C      -0.155585    1.531134   -0.004641
C       0.052163    0.018758   -0.008181
C       1.090709   -0.568992   -1.005910
C       2.430576    0.023647   -0.451593
C       2.207715   -0.017131    1.090529
C       0.765425   -0.615701    1.217310
C       0.878093   -2.063713    0.750316
C       0.894057   -3.235306    1.675382
C       1.067336   -2.025376   -0.575628
H       0.770302    2.093234    0.142894
H      -0.592860    1.860495   -0.953823
H      -0.848259    1.822273    0.792956
H      -0.915526   -0.470811   -0.161025
H       0.918672   -0.375561   -2.066419
H       3.290406   -0.569287   -0.771222
H       2.588607    1.046248   -0.807949
H       2.944221   -0.636319    1.608777
H       2.259287    0.982831    1.531396
H       0.301468   -0.465225    2.194892
H      -0.040890   -3.309207    2.245755
H       1.036239   -4.174565    1.132762
H       1.700495   -3.148256    2.415876
H       1.283623   -2.866490   -1.224617
