19

C      -0.026307    1.477199   -0.330902
C      -0.130205   -0.032287   -0.170015
C      -0.182675   -0.646770    1.203660
C      -1.411356   -0.652427    0.326556
C       1.369416    1.997387   -0.249336
C       2.217325    2.553054   -1.158103
C       3.440129    2.834432   -0.463260
C       3.242361    2.428814    0.816226
O       1.990104    1.917584    0.965132
H      -0.440768    1.779505   -1.299292
H      -0.643813    1.959710    0.438801
H       0.416073   -0.592759   -0.923835
H       0.337298   -1.583450    1.370692
H      -0.167405    0.025299    2.054782
H      -2.226367    0.013947    0.590903
H      -1.732714   -1.592076   -0.108880
H       1.997939    2.741471   -2.197673
H       4.336842    3.279348   -0.865185
H       3.853906    2.433131    1.703326
