16

N      -0.106881    1.267074    0.047853
C      -0.116849    0.029535   -0.184029
O      -1.085651   -0.746774    0.371616
C      -0.963040   -2.105296    0.191386
C      -0.135028   -3.192270    0.958684
C      -0.129873   -4.046303   -0.303089
C      -1.258476   -4.188804    0.707550
C      -2.074977   -3.095823   -0.044816
C      -0.939548   -2.959933   -1.071122
H       0.662665    1.707476   -0.452551
H       0.574702   -0.539387   -0.816724
H       0.581588   -3.144516    1.767099
H       0.606094   -4.767224   -0.633440
H      -1.562145   -5.041269    1.300264
H      -3.133087   -2.917740   -0.175422
H      -1.000124   -2.682139   -2.114480
