14

N       1.014677    0.082480    0.639162
C      -0.035243    0.014928   -0.215051
O      -0.196902    0.738612   -1.179186
C      -1.037361   -1.069731    0.109181
N      -0.754458   -1.968580    1.228960
C      -1.889258   -1.031595    1.351952
C      -1.800954    0.008727    2.338608
C      -1.769534    0.880180    3.165410
H       1.675041    0.834309    0.539154
H       1.059834   -0.540012    1.429119
H      -1.526563   -1.455951   -0.780549
H      -1.086021   -2.910661    1.041542
H      -2.887303   -1.447117    1.228408
H      -1.733244    1.654641    3.891310
