17

C      -0.132182    1.552871   -0.008316
C       0.003277    0.025254    0.005504
C      -1.304203   -0.578770   -0.212755
C      -2.393514   -1.054310   -0.394448
C       1.205199   -0.649306   -0.787651
C       2.153369   -0.155417    0.358056
C       0.889124   -0.659895    1.134450
C       0.981113   -1.846442    0.155976
O       0.976391   -3.035422    0.148646
H       0.810583    2.078127    0.148329
H      -0.545855    1.875851   -0.967869
H      -0.830014    1.866493    0.773267
H      -3.347822   -1.492387   -0.553827
H       1.372255   -0.626571   -1.862330
H       3.074453   -0.720507    0.506398
H       2.342245    0.914918    0.395037
H       0.703210   -0.648962    2.206213
