17

N      -0.008424    1.431142   -0.030219
C      -0.007973    0.026474   -0.122573
C      -1.143590   -0.766663   -0.102717
O      -2.427776   -0.376805    0.174186
N      -0.712556   -2.080120   -0.087720
C      -0.887458   -3.403172   -0.739771
C       0.675801   -3.539699   -0.721420
C       0.655155   -2.101248   -0.234147
C       1.145421   -0.819474   -0.267237
H       0.742993    1.777273    0.553838
H      -0.891044    1.763790    0.342224
H      -2.924181   -0.307138   -0.649062
H      -1.469700   -4.113262   -0.147239
H      -1.301500   -3.335450   -1.750549
H       1.066338   -4.284707   -0.022590
H       1.123865   -3.705503   -1.704114
H       2.168273   -0.493032   -0.377673
