21

C       0.039681    1.670332    0.173914
C       0.004431    0.150619    0.120389
C      -1.383644   -0.413628   -0.192079
C      -1.954699    0.021500   -1.545283
O      -3.195257   -0.609567   -1.829709
O       0.972096   -0.384438   -0.857368
C       1.538414   -1.229226    0.144518
C       2.188367   -0.425435    1.223533
C       0.688866   -0.645261    1.244675
H       1.016925    2.033743    0.498468
H      -0.164298    2.096669   -0.812703
H      -0.717530    2.044954    0.870730
H      -1.312372   -1.509064   -0.178155
H      -2.080560   -0.129136    0.606308
H      -2.170475    1.094132   -1.548915
H      -1.211711   -0.169520   -2.332414
H      -3.027066   -1.552072   -1.928403
H       1.792623   -2.246438   -0.130223
H       2.728815   -0.997441    1.971958
H       2.620121    0.542774    0.988742
H       0.171097   -1.121405    2.067074
