18

C       0.022790    1.523161    0.074764
C      -0.014965    0.025307   -0.029255
C      -0.059786   -0.627904   -1.189752
C      -0.040211   -2.143343   -1.259178
C       0.431646   -2.712063    0.096307
O      -0.261728   -2.108770    1.161689
C       0.014618   -0.727615    1.279238
C      -1.355464   -2.673108   -1.644524
N      -2.387318   -3.088689   -1.958345
H       0.907068    1.858862    0.631079
H       0.043449    1.992519   -0.911597
H      -0.852145    1.902137    0.617300
H      -0.110231   -0.090333   -2.131858
H       0.671478   -2.464460   -2.031712
H       0.240720   -3.785302    0.162358
H       1.516811   -2.540263    0.179365
H       0.995120   -0.569089    1.766474
H      -0.744381   -0.325101    1.960010
