22

C       0.121036    1.055927   -1.137227
C      -0.037667    0.006248   -0.053273
C       1.152280   -0.787612    0.353590
N       0.638647    0.279439    1.238112
C      -1.421798   -0.598607    0.063993
C      -1.976296   -1.199408   -1.215280
C      -1.812965   -1.283254    1.368996
C      -2.390137    0.064022    1.025648
O      -2.037694    1.203367    1.749324
H       1.141212    1.454063   -1.148953
H      -0.083835    0.648697   -2.131457
H      -0.572041    1.885790   -0.962110
H       1.021095   -1.795920    0.735073
H       2.095430   -0.611320   -0.156285
H       1.221989    1.107167    1.143241
H      -1.327997   -1.999643   -1.593435
H      -2.963788   -1.635409   -1.036442
H      -2.089640   -0.454279   -2.009731
H      -2.442566   -2.165416    1.309128
H      -1.079437   -1.300603    2.167957
H      -3.433640    0.119427    0.728671
H      -1.135503    1.055351    2.066866
