17

C      -0.024041   -1.194650    0.014254
C      -0.000902    0.004528    0.096478
C       0.064740    1.457806    0.185030
C       1.435824    2.028189   -0.240523
C       1.485725    3.536955   -0.145774
C       1.798982    4.208292    1.169784
C       2.800537    4.248323    0.041060
H      -0.058685   -2.253434   -0.054515
H      -0.721577    1.897998   -0.442413
H      -0.155306    1.776019    1.212003
H       2.215314    1.590666    0.394252
H       1.652923    1.703636   -1.265124
H       0.758255    4.048152   -0.772723
H       1.273779    5.121524    1.426598
H       2.024054    3.572698    2.020537
H       3.694494    3.640521    0.136182
H       2.957619    5.188513   -0.475838
