21

C      -0.129884    1.515905   -0.170595
C       0.027523    0.007216   -0.002817
O       0.725678   -0.550903   -1.118572
C       2.022281   -0.941436   -0.688161
C       1.820349   -1.193567    0.803938
O       0.848637   -0.219819    1.146510
C      -1.313929   -0.689849    0.152161
C      -2.124261   -1.078659   -1.056651
C      -1.496497   -2.143939   -0.192436
H       0.851136    1.981585   -0.292324
H      -0.743609    1.734820   -1.047587
H      -0.611343    1.944880    0.712676
H       2.327643   -1.826440   -1.253095
H       2.751986   -0.137292   -0.861357
H       1.453644   -2.212351    0.993154
H       2.715849   -1.019527    1.406537
H      -1.866762   -0.322263    1.011447
H      -3.199219   -0.941471   -1.020271
H      -1.675420   -0.910856   -2.028930
H      -0.649195   -2.673494   -0.610351
H      -2.136776   -2.740530    0.447620
