18

C      -0.018299    1.532037    0.033357
C       0.049072    0.025255    0.042307
C       0.939140   -0.821577   -0.931006
C       0.622413   -1.917486    0.108969
C       0.699863   -0.820268    1.191683
O      -0.800045   -2.121291   -0.060152
C      -1.276795   -0.765672   -0.125495
C      -2.266228   -0.500401    0.927347
N      -3.041784   -0.259005    1.749303
H       0.977989    1.965442    0.161167
H      -0.427304    1.905465   -0.912354
H      -0.655044    1.902345    0.843683
H       0.591304   -0.982417   -1.954571
H       1.979876   -0.493406   -0.918327
H       1.116517   -2.884548    0.165582
H       1.718977   -0.495019    1.406523
H       0.133656   -0.974284    2.112609
H      -1.749008   -0.577652   -1.097866
