20

C       0.084433    1.663318   -0.146952
C       0.087754    0.147862   -0.005285
C       0.669233   -0.760027   -1.136306
C       1.425159   -1.629736   -0.076399
C       2.856131   -2.026885   -0.301939
C       3.444427   -3.179191    0.422849
N       3.196312   -3.265789   -1.027235
C       1.132110   -0.488240    0.927477
O       1.646498   -0.139811    1.950511
H       1.070533    2.031040   -0.448626
H      -0.643139    1.989707   -0.896530
H      -0.169996    2.137134    0.805723
H      -0.907246   -0.211259    0.289270
H      -0.051019   -1.279475   -1.769411
H       1.370342   -0.211584   -1.772096
H       0.827711   -2.509482    0.198722
H       3.515654   -1.197547   -0.551553
H       4.491669   -3.163433    0.709330
H       2.800343   -3.734673    1.099919
H       2.351049   -3.806193   -1.198688
