16

N      -0.106568    1.225402    0.318544
C      -0.029006    0.007700    0.002677
O       1.130307   -0.638446   -0.359914
C       0.844403   -1.914995   -0.956183
C      -0.612560   -2.213567   -0.645338
C      -1.044382   -2.217849    0.809401
C      -0.096042   -2.326907    1.951269
O      -0.337488   -2.980100    2.937047
C      -1.166127   -0.953371   -0.053363
H       0.803454    1.680366    0.230891
H       0.998683   -1.844141   -2.039232
H       1.551342   -2.644403   -0.550628
H      -1.172827   -2.825931   -1.340528
H      -1.986980   -2.718083    1.005630
H       0.857103   -1.769129    1.850678
H      -2.154271   -0.559311   -0.243517
