21

C       0.006545    1.572340    0.143521
C       0.026738    0.044340    0.018970
C       0.659433   -0.605688    1.255003
O      -1.307949   -0.456792   -0.162768
C       0.768540   -0.408183   -1.249038
N       0.114924    0.118696   -2.440506
C       0.696682   -0.387525   -3.673015
C      -0.006804    0.139824   -4.846620
N      -0.569712    0.537239   -5.773458
H       1.016818    1.967094    0.291031
H      -0.411414    2.024038   -0.757634
H      -0.594138    1.875485    1.009384
H       0.123043   -0.304440    2.161432
H       0.613356   -1.695613    1.179420
H       1.705879   -0.305322    1.372385
H      -1.872202   -0.057655    0.507042
H       1.801460   -0.039847   -1.215742
H       0.815710   -1.512723   -1.245246
H      -0.870226   -0.122000   -2.389717
H       1.745178   -0.067590   -3.731934
H       0.706155   -1.491273   -3.751421
