17

C      -0.007653    1.519084    0.110749
C      -0.106185    0.033510   -0.010884
C      -0.061501   -0.733874   -1.112159
C      -0.052429   -2.169122   -0.730433
O      -0.411291   -3.185698   -1.607274
C       0.910942   -2.558457    0.463097
O       1.378990   -1.428424    1.160340
C      -0.022568   -0.902042    1.176663
C      -0.536204   -2.285969    0.689959
H       0.923008    1.815396    0.610922
H      -0.030004    2.001483   -0.870199
H      -0.831413    1.928203    0.709446
H       0.056424   -0.388522   -2.132983
H       0.333825   -3.358363   -2.192377
H       1.520039   -3.454986    0.448478
H      -0.273899   -0.521870    2.166429
H      -1.371760   -2.882673    1.032288
