16

O       0.010275    1.416578    0.080839
C      -0.010840    0.021839   -0.009923
C      -1.440093   -0.545990    0.007131
C      -1.403169   -2.050431   -0.259042
O      -0.802171   -2.335200   -1.515719
C       0.555512   -1.939196   -1.583535
C       0.714438   -0.457892   -1.260947
O       1.361226    0.313127   -1.934615
H       0.616022    1.711574   -0.617730
H       0.539835   -0.431154    0.838560
H      -1.912579   -0.330578    0.971067
H      -2.026772   -0.047994   -0.772059
H      -0.861486   -2.574192    0.547458
H      -2.412698   -2.465745   -0.309283
H       1.175480   -2.523983   -0.879513
H       0.908326   -2.129490   -2.598897
