21

C       0.012791    1.522616   -0.033418
C      -0.026775    0.009049    0.055183
O       0.936486   -0.606761   -0.857419
C       1.707512   -1.139856    0.245492
C       0.686420   -0.627566    1.271904
C       0.369600   -2.090850    1.652635
C      -0.008247   -2.931376    0.458889
C       1.440247   -2.610104    0.669487
C       2.516864   -3.643683    0.837479
H       1.008911    1.904421    0.212504
H      -0.237630    1.851187   -1.046839
H      -0.710928    1.964871    0.660676
H      -1.040992   -0.360003   -0.143404
H       2.758902   -0.840534    0.213825
H       0.964861    0.027512    2.096743
H       0.157192   -2.424223    2.661947
H      -0.283445   -3.953081    0.703090
H      -0.543332   -2.517463   -0.388517
H       2.885354   -3.994028   -0.134635
H       3.374773   -3.248543    1.394061
H       2.142129   -4.516806    1.381963
