17

C       0.236101    1.480805   -0.141777
N       0.080027    0.035732   -0.002689
C      -1.186747   -0.421219    0.634753
C      -0.505210   -1.710877    1.179106
C       0.533937   -0.544929    1.291129
C      -0.747805   -0.104656    2.116632
N      -1.059860   -1.494294    2.537942
C      -0.652136   -2.133746    3.678374
O      -0.254493   -3.276883    3.728288
H       1.283571    1.708366   -0.362673
H      -0.366039    1.826760   -0.987719
H      -0.060564    2.058458    0.750191
H      -2.173788   -0.316410    0.183783
H      -0.396936   -2.683541    0.709381
H       1.576740   -0.587134    1.609846
H      -0.936924    0.757732    2.753664
H      -0.808748   -1.503796    4.578709
