18

C      -0.001599    1.514943   -0.072652
C      -0.033751    0.005924   -0.084957
C       0.732482   -0.711858   -1.129004
N       1.279352   -0.606359    0.267275
C       1.196286   -2.109271    0.375518
C      -0.090373   -2.841854    0.039114
O      -1.418709   -2.522074    0.355806
C       0.707111   -2.253671   -1.069954
O       1.248441   -3.004258   -2.097012
H       0.952664    1.886347   -0.456985
H      -0.809926    1.922349   -0.689051
H      -0.124535    1.894025    0.946912
H      -0.933707   -0.453741    0.298668
H       1.243027   -0.214047   -1.948567
H       1.996664   -2.598243    0.918523
H       0.115134   -3.915530    0.081446
H      -1.547441   -2.704969    1.293641
H       0.533513   -3.266238   -2.688662
