16

O      -0.667587    1.215325    0.811594
C       0.010606    0.189346    0.107700
C       0.876849   -0.712794    1.032952
C      -0.011169   -1.883453    1.395180
O      -1.314508   -1.511953    1.844299
C      -1.168770   -1.905276    0.474637
C      -1.069194   -0.739546   -0.496162
C      -1.839199   -3.121835    0.081712
N      -2.374289   -4.084422   -0.269121
H      -0.010264    1.799916    1.202183
H       0.629553    0.623275   -0.689346
H       1.763177   -1.084152    0.505326
H       1.219678   -0.163662    1.915742
H       0.394160   -2.790555    1.836157
H      -2.013985   -0.202175   -0.601064
H      -0.770804   -1.113149   -1.480599
