21

C       0.161598    1.330416    0.267137
O       0.048850   -0.059225    0.053962
C       0.604611   -0.546194   -1.166469
C       2.132196   -0.591188   -1.129217
C      -0.007264   -1.949359   -1.332105
O       0.260645   -2.735310   -0.180276
C      -1.520283   -1.878409   -1.619659
C      -2.145933   -3.244652   -1.787912
O      -2.892815   -3.542841   -2.686435
H       1.203590    1.652133    0.398351
H      -0.277273    1.900907   -0.564985
H      -0.390463    1.560016    1.181716
H       0.269041    0.092615   -1.999192
H       2.522099   -0.931029   -2.093963
H       2.559944    0.394869   -0.929775
H       2.466917   -1.287075   -0.356044
H       0.497462   -2.451683   -2.165579
H       0.058740   -2.167376    0.575175
H      -1.997960   -1.382881   -0.763334
H      -1.730976   -1.286350   -2.515806
H      -1.863825   -3.978050   -1.003232
