23

C       0.142263    1.492616   -0.001127
C       0.127802   -0.026798    0.011318
O       0.657805   -0.493112   -1.211578
C       0.700861   -1.900850   -1.299396
C       1.318995   -2.283227   -2.638529
C       1.416686   -3.786266   -2.820922
C       2.261509   -4.325869   -3.996725
C       3.065092   -5.050863   -2.898884
O       2.303612   -4.409802   -1.855167
H       1.163734    1.865217   -0.119759
H      -0.459522    1.875217   -0.830497
H      -0.265138    1.886494    0.934860
H       0.723184   -0.412760    0.856401
H      -0.901131   -0.402225    0.148863
H       1.299197   -2.325834   -0.477918
H      -0.316300   -2.323103   -1.212561
H       0.713857   -1.861564   -3.451163
H       2.318936   -1.840365   -2.710075
H       0.415962   -4.240675   -2.761107
H       1.741079   -4.959691   -4.715926
H       2.817589   -3.553680   -4.532516
H       2.944232   -6.141842   -2.880229
H       4.133337   -4.813936   -2.832846
