21

C      -0.089591    1.438696   -0.425497
C      -0.044868    0.020504   -0.097904
C      -0.001827   -1.152204    0.171581
C       0.019506   -2.575468    0.503036
C      -1.336189   -3.241647    0.291095
C      -1.721568   -3.818438   -1.045696
C      -1.508592   -4.736090    0.134535
C      -0.358717   -5.708245    0.159673
O      -0.764056   -6.876186   -0.544467
H       0.623084    1.688456   -1.219545
H      -1.085758    1.735981   -0.771985
H       0.155198    2.058537    0.444388
H       0.785053   -3.076586   -0.101526
H       0.332796   -2.699984    1.549021
H      -2.132277   -2.745808    0.839127
H      -2.728476   -3.665501   -1.417129
H      -0.960597   -3.828455   -1.820430
H      -2.407338   -5.148518    0.585465
H       0.535058   -5.262786   -0.303829
H      -0.096910   -5.951542    1.202628
H      -0.063236   -7.530065   -0.463367
