16

O      -0.096381    1.431865    0.031190
C      -0.060873    0.056664    0.003053
C       0.476649   -0.753253   -1.209054
C      -0.515432   -1.830584   -0.771087
C      -0.545239   -1.844154    0.763222
C      -1.361503   -0.839151   -0.010860
C       0.419314   -0.765237    1.264482
C       1.839822   -1.049254    1.423803
N       2.973830   -1.256750    1.520781
H       0.786097    1.771710   -0.158902
H       0.158931   -0.283504   -2.143452
H       1.545806   -0.987090   -1.239412
H      -0.851037   -2.691012   -1.333643
H      -0.897721   -2.700976    1.320148
H      -2.414510   -0.603749   -0.011229
H       0.028469   -0.288958    2.167308
