14

O       0.226862    1.509144    0.049983
C       0.069768    0.112927   -0.010663
C       0.655833   -0.453310   -1.244966
N       1.128310   -0.896402   -2.201495
C       0.677025   -0.553388    1.235110
O       1.961480    0.021208    1.564010
C       1.534696    0.497113    2.866550
C       0.130956   -0.048539    2.587138
O      -0.919751   -0.076320    3.142371
H       1.171532    1.666833    0.187638
H      -1.006922   -0.092003   -0.015199
H       0.714180   -1.644608    1.131480
H       2.071888    0.009718    3.688221
H       1.605906    1.585965    2.966774
