13

C      -0.025467    1.557077    0.030436
C      -0.021751    0.008130   -0.037428
C      -1.397151   -0.516037    0.040944
N      -2.480685   -0.907507    0.120761
C       0.659278   -0.488124   -1.231768
C       1.247806   -0.877221   -2.213065
C       1.904913   -1.313632   -3.321897
C       2.488638   -1.701448   -4.304548
H       1.003678    1.921439    0.018285
H      -0.558144    1.973950   -0.826182
H      -0.514768    1.888441    0.949093
H       0.509103   -0.372285    0.846806
H       2.999956   -2.042773   -5.170548
