14

O       0.046507    0.030126   -0.150810
C       0.026575    1.230375   -0.038726
C      -1.205362    2.126585    0.055283
O      -0.724389    3.476389    0.052070
C       0.642997    3.548626   -0.025114
O       1.229270    4.586790   -0.053822
C       1.187188    2.153901   -0.013008
C       2.442980    1.786225    0.730742
N       2.440147    1.818437   -0.714245
H      -1.874262    1.968881   -0.796748
H      -1.762924    1.936215    0.978609
H       2.978502    2.601658    1.207642
H       2.435844    0.829743    1.246574
H       2.327744    0.868537   -1.073908
