18

C       0.071739    1.481712   -0.319726
N       0.052814    0.050604   -0.012540
C      -1.055453   -0.479507    0.850314
C      -0.140328   -1.699739    1.149701
O      -0.388841   -2.249376    2.421038
C      -0.564453   -1.082056    3.230490
C      -0.386302    0.033054    2.196485
O      -0.425793    1.342532    2.662438
C       0.755489   -0.424742    1.225736
H       1.055064    1.730447   -0.733415
H      -0.668255    1.672086   -1.104974
H      -0.130757    2.145923    0.527433
H      -2.104220   -0.467985    0.547630
H       0.041284   -2.452309    0.389150
H      -1.561854   -1.082885    3.692971
H       0.191762   -1.041356    4.024294
H      -1.265489    1.482494    3.115087
H       1.834869   -0.350015    1.365728
