19

C       0.197942    1.238716    0.160802
O      -0.099208   -0.104877   -0.187084
C       0.584484   -0.548976   -1.290398
C       0.307516   -0.217164   -2.757991
C       1.190857   -1.459966   -3.061453
C       0.918780   -1.976925   -1.585281
C       2.049616   -1.026985   -1.187464
C       2.620621   -1.044127   -2.602736
O       3.618341   -2.016779   -2.820835
H       1.266698    1.368460    0.379346
H      -0.083169    1.935534   -0.640678
H      -0.384954    1.472083    1.054106
H      -0.744097   -0.389414   -3.004744
H       0.635910    0.745159   -3.167861
H       1.062369   -2.034836   -3.975970
H       0.553042   -2.898487   -1.157492
H       2.576044   -0.982938   -0.241682
H       3.020649   -0.114462   -3.022064
H       3.343326   -2.819651   -2.361492
