16

C      -0.056613   -1.216336   -0.055329
C      -0.019803   -0.015099   -0.031889
C       0.016821    1.443054    0.025494
C      -0.696219    1.963373    1.295204
O      -0.528390    3.359508    1.421915
C       0.816646    3.729994    1.659751
C       1.793764    3.009472    0.773754
C       1.437656    1.980191    0.011422
H      -0.088577   -2.277088   -0.086781
H      -0.522492    1.837068   -0.848975
H      -1.771482    1.779055    1.239053
H      -0.296901    1.432142    2.172809
H       0.868087    4.811667    1.487108
H       1.082474    3.564512    2.720370
H       2.819049    3.369796    0.785035
H       2.151815    1.478557   -0.633537
