20

C       0.124421    1.553260   -0.118356
C      -0.013077    0.046925    0.104707
O       0.355114   -0.591947   -1.131457
C       1.033413   -1.773793   -1.181658
N       0.939422   -2.537732   -2.187744
C       2.005375   -2.106659   -0.065648
C       3.452551   -1.800253   -0.517552
C       1.670834   -1.402303    1.216401
C       0.765876   -0.434504    1.288421
H       1.173571    1.821503   -0.271079
H      -0.448111    1.855567   -0.998969
H      -0.254624    2.102169    0.748979
H      -1.079148   -0.182045    0.263608
H       0.268406   -2.153324   -2.856180
H       1.935199   -3.189696    0.085447
H       3.570859   -0.735110   -0.739003
H       4.162403   -2.062647    0.273496
H       3.692502   -2.375165   -1.414271
H       2.221819   -1.709758    2.101628
H       0.541834    0.062605    2.228224
