16

O      -0.213527    1.364847   -0.081206
N      -0.057180   -0.023725   -0.224562
C      -1.124629   -0.641404    0.124931
C      -2.499102   -0.154813    0.317820
C      -3.267662   -1.241478    0.592297
C      -3.876506   -2.001406   -0.589532
C      -2.563288   -2.861906   -0.422767
C      -2.416424   -2.451964    1.004103
C      -1.250861   -2.134536    0.122369
H       0.617410    1.699352   -0.435163
H      -2.840693    0.717530   -0.228922
H      -4.731767   -2.649712   -0.370011
H      -4.050536   -1.434211   -1.507505
H      -2.448749   -3.861340   -0.834612
H      -2.436223   -3.017577    1.926083
H      -0.364521   -2.760864    0.103289
