20

C      -0.523472    1.414567    0.069511
C       0.060118    0.022309    0.049581
C       0.053652   -0.667317   -1.106383
C       0.503646   -2.026422   -1.483432
O       0.379643   -2.374441   -2.645271
C       1.144471   -3.023620   -0.505177
N       0.985492   -2.873278    0.926348
C       1.493986   -1.633075    1.487369
C       0.558455   -0.421935    1.402764
H       0.247258    2.153216    0.324147
H      -0.962237    1.691001   -0.891022
H      -1.297868    1.499741    0.842474
H      -0.367604   -0.171404   -1.978486
H       0.787736   -4.012193   -0.810576
H       2.219666   -3.014225   -0.735958
H       0.024320   -3.032517    1.207111
H       1.736087   -1.791914    2.546449
H       2.441615   -1.405489    0.984327
H       1.050207    0.434604    1.885935
H      -0.329399   -0.613760    2.027661
