16

C      -0.099104    1.462939   -0.005205
C       0.034965   -0.039068    0.025049
O       1.065687   -0.648765    0.058566
N      -1.215595   -0.740018    0.011386
N      -2.398118   -0.101199   -0.025546
C      -3.279392   -1.083036   -0.026047
C      -2.594993   -2.328810    0.011568
C      -3.143652   -3.717187    0.025666
N      -1.295180   -2.080597    0.034619
H       0.904087    1.887455    0.006941
H      -0.638828    1.784784   -0.899165
H      -0.673275    1.816734    0.854619
H      -4.339246   -0.879754   -0.052351
H      -3.749683   -3.911634   -0.865417
H      -2.326661   -4.439937    0.055168
H      -3.785068   -3.879742    0.898186
