18

O       0.358449    0.986484    0.578011
C      -0.221111    0.306843   -0.522657
C      -1.426108   -0.520946   -0.116376
C      -1.978768   -1.542503   -1.072732
C      -1.300448   -1.985217    0.207017
O      -0.022721   -2.541699    0.167473
O      -2.400424    0.220900    0.584258
C      -2.181047    0.409111    1.910859
N      -2.873605    1.260446    2.534480
H      -0.175964    1.766742    0.757601
H      -0.519401    1.010407   -1.312402
H       0.543999   -0.361126   -0.925138
H      -3.057055   -1.630804   -1.136845
H      -1.437519   -1.685856   -2.002417
H      -1.951341   -2.362459    0.995581
H      -0.086956   -3.411302   -0.241512
H      -1.398156   -0.237745    2.318752
H      -2.616105    1.255565    3.519623
