19

C       0.018231    1.492987   -0.054636
C       1.384185    0.827367    0.021044
C       2.157718    0.207574   -1.147911
C       1.358192   -1.108080   -1.344352
C       1.615710   -2.209475   -0.259418
C       0.711203   -2.087662    0.958143
C      -0.034162   -0.997508    1.165518
C       0.099608    0.010001    0.083357
O       0.022501   -0.630135   -1.188913
H      -0.261471    2.098466    0.802743
H      -0.358403    1.849682   -1.007487
H       1.922743    0.980438    0.948919
H       2.116484    0.801487   -2.067099
H       3.209889    0.052028   -0.891232
H       1.454228   -1.530555   -2.348999
H       1.467764   -3.201065   -0.705720
H       2.668935   -2.183727    0.052854
H       0.676982   -2.936784    1.634941
H      -0.689837   -0.870763    2.020209
