18

O      -0.206302    0.013414    0.025200
C      -0.052691    1.214712   -0.027995
N       1.149991    1.852975   -0.026780
C       2.417731    1.178070   -0.051793
C       3.055958    0.550529   -1.349512
C       4.338288    0.640551   -0.453664
C       3.743271    1.991474    0.077128
C       3.942578   -0.302680    0.693249
C       2.682984    0.046016    0.958657
H      -0.896854    1.932742   -0.072074
H       1.148008    2.851908   -0.162008
H       2.707912   -0.440678   -1.642073
H       3.063222    1.240624   -2.199805
H       5.341827    0.579724   -0.869000
H       3.819562    2.811083   -0.646916
H       4.035626    2.317425    1.077818
H       4.561587   -1.067345    1.139552
H       1.964368   -0.339756    1.663722
