19

C      -0.027684    1.548666    0.040744
C       0.005578    0.023708    0.061976
O       0.712284   -0.483242    1.182271
C      -1.428308   -0.572787    0.001311
O      -2.148140   -0.071311   -1.123901
C      -1.400196   -2.034455    0.019329
C      -1.364912   -3.237381   -0.051785
C      -1.365480   -4.699600   -0.075170
O      -2.664121   -5.267025   -0.172284
H       0.990135    1.947122    0.039782
H      -0.560757    1.912504   -0.839905
H      -0.546694    1.934464    0.928400
H       0.553615   -0.348431   -0.812239
H       0.345369   -0.073594    1.973820
H      -1.976618   -0.204614    0.880770
H      -1.927569   -0.630943   -1.876437
H      -0.815746   -5.063815   -0.950148
H      -0.827556   -5.070918    0.811937
H      -3.203346   -4.872792    0.521287
