19

C      -0.159047    1.451493   -0.108783
O      -0.149860    0.037292   -0.075617
C       0.653095   -0.541240   -1.053632
C       0.183286   -0.482864   -2.533079
C       0.386290   -2.022980   -2.648402
C       0.752143   -2.107845   -1.126997
C       2.259107   -1.985726   -0.910280
O       3.153037   -2.777452   -0.825352
C       2.200399   -0.445114   -0.842399
H       0.843581    1.870234    0.061924
H      -0.536852    1.835324   -1.067352
H      -0.822457    1.786269    0.691429
H      -0.869690   -0.199505   -2.602987
H       0.764771    0.145374   -3.212439
H      -0.522814   -2.572312   -2.896374
H       1.178602   -2.350636   -3.325013
H       0.179034   -2.793363   -0.503605
H       2.807410    0.103039   -1.568219
H       2.443963   -0.094683    0.166530
