19

C       0.024564    1.503731   -0.098956
O       1.427585    1.519819    0.237178
C       1.436905    0.094519    0.461106
C       0.013306   -0.037116   -0.113872
O      -0.963076   -0.688286    0.709871
C      -1.544880   -1.636128   -0.207875
C      -0.307350   -2.246594   -0.909340
C      -0.202159   -0.778224   -1.435275
C      -1.764492   -0.792693   -1.487167
H      -0.600984    1.930041    0.695534
H      -0.182908    2.014939   -1.047311
H       2.245414   -0.408005   -0.084363
H       1.494981   -0.161279    1.526686
H      -2.318526   -2.210392    0.298137
H       0.489634   -2.632425   -0.269115
H      -0.556955   -2.959338   -1.696905
H       0.422434   -0.487484   -2.278802
H      -2.152752   -1.367092   -2.329714
H      -2.301426    0.152432   -1.375905
