18

C       0.180748    1.577351    0.005655
C      -0.010350    0.096960    0.022123
C      -1.106536   -0.679960   -0.018022
C      -2.556212   -0.328578   -0.104185
O      -2.775398    1.054921    0.126331
C      -0.673218   -2.127800    0.018485
C       0.859556   -2.059239    0.094603
O       1.657141   -2.967131    0.148752
N       1.148800   -0.712284    0.088315
H       0.806836    1.874183   -0.845398
H      -0.778437    2.084062   -0.062737
H       0.695472    1.912371    0.915167
H      -2.947399   -0.624527   -1.094928
H      -3.110462   -0.937965    0.632245
H      -3.703838    1.239443   -0.040837
H      -1.057689   -2.679369    0.885327
H      -0.967260   -2.701149   -0.869653
H       2.090479   -0.360738    0.147237
