15

O      -0.102648    1.492213   -0.064785
C      -0.026353    0.091480    0.005009
C       0.225837   -0.594825    1.382849
O       1.189936   -0.638824    2.094412
C      -1.100416   -1.282389    1.365706
C      -2.181369   -0.235685    1.158496
C      -1.383723   -0.629743   -0.044077
C      -1.931059   -1.259165   -1.195244
C      -2.379253   -1.784485   -2.180425
H       0.753565    1.846029    0.201212
H       0.669545   -0.328483   -0.736788
H      -1.333829   -2.281846    1.709843
H      -3.190528   -0.629781    1.197434
H      -2.062457    0.762738    1.564112
H      -2.777900   -2.246563   -3.049390
