21

C      -0.209840    1.640219   -0.214569
C      -0.069196    0.118925   -0.120831
C      -1.418058   -0.590178    0.040493
C      -1.297595   -2.112446    0.201626
O      -0.533028   -2.418471    1.343656
C      -2.675391   -2.847933    0.025329
C      -2.314827   -3.185218   -1.456666
C      -0.868003   -2.860183   -1.073538
O       0.207007   -3.272168   -1.414159
H       0.766500    2.122264   -0.323685
H      -0.822754    1.933382   -1.074620
H      -0.684862    2.050281    0.683695
H       0.439288   -0.261730   -1.015525
H       0.565209   -0.146607    0.731000
H      -1.933059   -0.213686    0.934436
H      -2.070026   -0.362267   -0.812924
H       0.220621   -2.945754    1.050908
H      -2.717142   -3.739938    0.652477
H      -3.564485   -2.237204    0.187838
H      -2.491584   -4.198114   -1.822844
H      -2.731824   -2.470529   -2.171991
