21

C       0.026453    1.519536   -0.094450
C      -0.034500    0.007735    0.044081
C      -1.336900   -0.657498    0.556992
C      -0.480945   -1.689442    1.343778
C       0.709546   -0.695257    1.221763
O       2.029272   -1.139071    1.017814
C       2.239822   -1.728924   -0.257051
C       1.697586   -0.833473   -1.360659
O       0.301595   -0.632777   -1.193486
H       1.039759    1.861362   -0.329910
H      -0.638841    1.851111   -0.897996
H      -0.282394    2.008108    0.834984
H      -1.902733    0.008297    1.213843
H      -1.993844   -1.040080   -0.225513
H      -0.796803   -1.957220    2.353538
H      -0.321628   -2.602134    0.767243
H       0.751221   -0.039342    2.096323
H       3.321037   -1.865124   -0.357476
H       1.760362   -2.717772   -0.318359
H       2.241776    0.123529   -1.361872
H       1.827627   -1.303136   -2.340673
