17

O       0.060813    1.404618    0.204297
C       0.063007    0.002656   -0.025823
C       0.679089   -0.712955    1.191410
C      -0.178009   -1.630703    1.671289
C      -0.873785   -1.429789    2.984673
C      -2.057914   -0.897956    2.632660
C      -2.303593   -1.012861    1.141564
C      -1.318097   -0.650735   -0.094386
C      -1.257501   -1.941287    0.636820
H      -0.504002    1.562481    0.970024
H       0.589978   -0.110812   -0.982879
H       1.412835   -0.177137    1.785605
H      -0.427539   -1.445567    3.969473
H      -2.782632   -0.462836    3.310682
H      -3.332144   -1.091968    0.803093
H      -1.874740   -0.561751   -1.023505
H      -1.415221   -2.934069    0.226712
