17

O       0.501096    0.585540   -0.799654
C      -0.076149    0.331454    0.463736
C      -1.421301   -0.409033    0.327449
C      -2.265328    0.436795   -0.525744
N      -2.842606    1.157808   -1.222200
C      -1.521765   -1.951740    0.116220
C      -1.111805   -2.057792    1.598693
N      -2.125315   -0.889879    1.633992
C      -2.947241   -1.802237    0.691539
H      -0.048879    1.229852   -1.260648
H       0.652284   -0.269205    1.007606
H      -0.249107    1.251398    1.040858
H      -1.174557   -2.524953   -0.747617
H      -1.468161   -2.930834    2.148247
H      -0.101016   -1.799116    1.908310
H      -3.700320   -1.272356    0.106417
H      -3.375464   -2.662343    1.208948
