21

O       0.126070    1.364090    0.554950
C      -0.012266    0.035122    0.126224
C      -1.440303   -0.479434    0.195389
C      -2.324283    0.070092   -0.917569
O      -2.127747    1.452378   -1.179650
C      -2.714723   -0.784384   -2.094266
C      -3.741709   -0.396359   -1.046471
C       0.918275   -0.444227   -0.969486
C       1.142626   -0.844145    0.479431
H      -0.590511    1.854539    0.129086
H      -1.457848   -1.573589    0.156576
H      -1.849727   -0.184091    1.169827
H      -1.474350    1.517317   -1.885002
H      -2.791212   -0.299774   -3.062109
H      -2.366932   -1.811157   -2.129004
H      -4.097283   -1.157665   -0.360333
H      -4.476029    0.350370   -1.324455
H       0.574515   -1.200967   -1.667354
H       1.598487    0.289805   -1.386650
H       1.963748   -0.368052    1.002975
H       0.949705   -1.871134    0.770346
