21

C      -0.030716    1.749516    0.505979
C      -0.011142    0.309167    0.024371
C      -1.351526   -0.092124   -0.572676
O      -1.314042   -1.440439   -1.016884
C       1.212881   -0.317299   -0.608945
C       2.564803    0.328590   -0.377293
O       2.681407    0.543515    1.029859
C       1.842959   -0.383006    1.721548
C       0.743308   -0.780207    0.756391
H       0.924819    2.049900    0.936467
H      -0.259720    2.430768   -0.322572
H      -0.806769    1.891508    1.267965
H      -2.135753    0.046989    0.190301
H      -1.586043    0.588843   -1.408009
H      -2.173775   -1.658116   -1.386586
H       1.078886   -0.950399   -1.477023
H       3.360689   -0.340894   -0.741193
H       2.696119    1.303758   -0.860555
H       2.409806   -1.278277    2.023606
H       1.495131    0.119822    2.631448
H       0.270561   -1.747252    0.873281
