15

O       0.319331    1.405932    0.368172
C       0.014728    0.087864    0.025045
C      -1.476217   -0.149510   -0.278976
C      -1.409817   -1.320173   -1.266257
O      -0.168829   -1.138175   -1.994820
C       0.647941   -0.307207   -1.318124
N       1.754051    0.171765   -1.678929
C       0.480811   -0.858967    1.069924
N       0.821532   -1.604663    1.884329
H       1.188614    1.584443   -0.026993
H      -2.076162   -0.366690    0.604618
H      -1.855717    0.755313   -0.760885
H      -1.373413   -2.289279   -0.758577
H      -2.220020   -1.326510   -1.996371
H       2.040756   -0.135908   -2.607180
