23

C       0.047784    1.452331    0.288995
C       0.029794    0.003658   -0.213958
C      -1.350744   -0.609731   -0.127124
C      -1.638014   -2.106035   -0.159573
C      -0.513175   -3.093106    0.148490
C      -0.394301   -3.019072    1.688983
C       0.997694   -3.216419    2.261106
O      -0.865059   -1.705078    2.040718
C      -1.843968   -1.320000    1.109776
H       1.047408    1.889401    0.201163
H      -0.642760    2.081598   -0.283618
H      -0.251194    1.499704    1.340801
H       0.381461   -0.032963   -1.253216
H       0.734889   -0.585593    0.378312
H      -2.119265   -0.021192   -0.627123
H      -2.478899   -2.448338   -0.751307
H      -0.767997   -4.103056   -0.184396
H       0.433251   -2.820252   -0.331555
H      -1.079088   -3.760699    2.132758
H       1.702759   -2.500495    1.826921
H       0.991976   -3.078071    3.345812
H       1.355361   -4.228434    2.046047
H      -2.819770   -1.110688    1.539036
