22

C      -0.408658    1.555222    0.264618
C      -0.136584    0.060109    0.357164
C       0.167226   -0.690059   -0.947806
N       1.441691   -0.133379   -1.475383
C       1.474480   -1.177420   -0.428043
C       2.187248   -2.477879   -0.670147
O       1.929117   -2.997663   -1.969282
C       1.258695   -0.458556    0.916854
C       2.316536    0.541409    1.364432
H       0.344859    2.049720   -0.352758
H      -1.390263    1.740493   -0.186176
H      -0.407749    2.022926    1.255094
H      -0.946851   -0.436829    0.900238
H      -0.540490   -1.160683   -1.622435
H       1.628313   -0.626548   -2.349935
H       3.273416   -2.333903   -0.622089
H       1.921037   -3.202506    0.115044
H       1.002674   -3.259340   -1.995412
H       1.075375   -1.192441    1.709460
H       2.573419    1.223314    0.550737
H       1.966513    1.134131    2.216359
H       3.231953    0.026699    1.677924
