12

N       0.066391    1.154822   -0.621228
C      -0.034508    0.153721    0.134866
O       0.841711   -0.097920    1.170186
N       1.430647   -1.405133    1.207970
C       0.618382   -2.353403    1.506061
N      -0.714239   -2.321805    1.884979
C      -1.553895   -1.559618    1.305988
C      -1.285371   -0.710277    0.086871
O      -2.075533   -0.678505   -0.820063
H       0.932870    1.663463   -0.428796
H       1.090710   -3.331696    1.558875
H      -2.588460   -1.562459    1.652748
