16

C       0.009842    1.578924    0.102942
C      -0.003875    0.058318   -0.115352
C      -1.392393   -0.519339   -0.087183
C      -1.973143   -1.104976   -1.155094
O      -3.223362   -1.613574   -1.123644
C      -3.981970   -1.551715    0.039748
O      -5.091319   -2.007670    0.047162
C      -3.286518   -0.904985    1.159927
N      -2.091725   -0.425266    1.107480
H       1.036102    1.955535    0.138494
H      -0.516335    2.097128   -0.705097
H      -0.482349    1.832883    1.045624
H       0.472844   -0.192289   -1.069223
H       0.587769   -0.424655    0.671827
H      -1.508011   -1.227098   -2.126025
H      -3.848531   -0.844262    2.088987
