18

O       0.251094    1.099020    0.623637
C      -0.049772   -0.008882   -0.214068
C      -1.468252   -0.485772   -0.039000
C      -1.987922   -0.979315    1.296253
C      -3.360179   -1.431893    0.849525
C      -3.875601   -0.554168   -0.286308
C      -3.277071   -1.902509   -0.578487
N      -2.020050   -1.297454   -1.171893
C      -2.589496    0.055972   -0.862109
H      -0.347133    1.814050    0.382557
H       0.132145    0.213220   -1.275380
H       0.648129   -0.800510    0.077739
H      -1.382505   -1.803749    1.689310
H      -2.009137   -0.178065    2.040814
H      -4.074519   -1.891171    1.521083
H      -4.887119   -0.187914   -0.384700
H      -3.685099   -2.815873   -0.989045
H      -2.517061    0.873431   -1.571869
