16

C      -0.012679    1.517895   -0.012950
C      -0.015655    0.013668    0.017101
C      -0.019197   -0.714352   -1.155300
F      -0.011241   -0.080042   -2.347022
C      -0.019638   -2.117204   -1.156471
N      -0.079569   -2.814085   -2.344707
N      -0.005243   -2.807082   -0.015005
C      -0.007157   -2.116098    1.130321
C      -0.015065   -0.731884    1.205114
H       0.866407    1.900919   -0.541696
H      -0.891166    1.904017   -0.540333
H      -0.011031    1.927574    0.999247
H       0.252966   -2.329836   -3.163332
H       0.205748   -3.778558   -2.268363
H       0.001800   -2.712341    2.039285
H      -0.013331   -0.229358    2.165740
