22

C       0.170171    1.566228    0.142886
C      -0.026265    0.099467   -0.033521
C       0.448509   -0.908505   -1.006651
N       0.923983   -0.955816    0.431130
C      -0.197744   -1.600592    1.192219
C      -1.209795   -0.916754    0.267269
C      -0.937752   -1.551660   -1.140680
C      -1.763841   -0.846180   -2.221869
C      -1.031744   -3.068066   -1.311709
H       1.201869    1.835011   -0.104586
H      -0.499582    2.141675   -0.505737
H      -0.018790    1.873998    1.177696
H       1.229076   -0.824767   -1.754236
H      -0.176027   -2.693448    1.252608
H      -0.196720   -1.185554    2.204015
H      -2.230832   -0.684155    0.570731
H      -1.753325    0.240688   -2.094720
H      -1.376543   -1.069923   -3.222459
H      -2.807285   -1.180200   -2.191542
H      -2.057944   -3.418477   -1.148862
H      -0.748089   -3.351866   -2.331677
H      -0.374908   -3.612130   -0.630037
