15

N      -0.101760   -1.154605    0.061024
C      -0.061489    0.001734    0.025322
C      -0.006088    1.420193   -0.023906
C      -0.668155    2.485967    0.808160
N       0.588309    3.129302    1.107108
C       1.249663    2.362347   -0.028609
C       1.108947    3.181444   -1.289525
C      -0.185358    3.214604   -1.640956
C      -0.974887    2.353129   -0.730817
H      -1.466025    2.410323    1.536728
H       0.592482    4.140252    0.961329
H       2.225794    1.958571    0.231655
H       1.913779    3.766827   -1.715089
H      -0.629978    3.827852   -2.414127
H      -1.963098    1.986183   -0.977844
