21

C       0.060268    1.415683    0.081248
O       0.011710   -0.000204    0.051249
C       0.660848   -0.562555   -1.042895
O       2.046643   -0.282845   -0.948006
C       2.832820   -1.014588   -1.883843
C       4.243747   -0.450731   -1.826626
C       2.761608   -2.514474   -1.565086
C       1.343237   -2.930802   -1.279663
C       0.382451   -2.041806   -1.048462
H       1.083684    1.782230    0.214362
H      -0.351993    1.846550   -0.844207
H      -0.553659    1.734480    0.926308
H       0.277767   -0.095509   -1.977377
H       2.418933   -0.858603   -2.895675
H       4.653551   -0.559271   -0.817610
H       4.897934   -0.979751   -2.526534
H       4.243332    0.611614   -2.084458
H       3.167392   -3.091154   -2.406279
H       3.400647   -2.743086   -0.700033
H       1.121691   -3.994941   -1.263424
H      -0.645268   -2.330666   -0.854558
