21

C      -0.068972    1.548657    0.037666
C       0.077390    0.022929   -0.009654
C       0.766830   -0.474604   -1.253665
C       2.204264   -0.169764   -1.751719
C       1.615266   -1.119683   -2.816672
C       0.949728   -1.987409   -1.689862
C      -0.391747   -2.458846   -2.223998
C      -0.850375   -1.407641   -2.909744
C       0.240838   -0.363436   -2.748274
H       0.907255    2.043590    0.005456
H      -0.655113    1.915058   -0.811727
H      -0.575037    1.867318    0.953978
H       0.637896   -0.322594    0.869212
H      -0.912469   -0.448534    0.048371
H       2.410786    0.856815   -2.069354
H       3.025837   -0.560472   -1.142911
H       2.096262   -1.498672   -3.722404
H       1.567533   -2.649453   -1.080408
H      -0.843426   -3.427876   -2.063619
H      -1.776115   -1.291843   -3.456004
H       0.142210    0.617863   -3.215276
