17

O      -0.085761   -0.020263    0.068219
C      -0.017893    1.186185    0.046708
C       1.258818    1.941378    0.014308
C       1.213438    3.286181   -0.015571
C       2.432554    4.132352   -0.014723
O       2.356336    5.341825   -0.083259
C       3.756590    3.391233    0.111955
C       3.709049    2.002718   -0.540778
C       2.549448    1.167953    0.016452
H      -0.930816    1.820393    0.049103
H       0.265769    3.819442   -0.033244
H       4.544778    4.024784   -0.301988
H       3.962488    3.287730    1.187805
H       3.579667    2.117260   -1.624110
H       4.658455    1.480218   -0.390303
H       2.766502    0.853065    1.047739
H       2.409038    0.239864   -0.545345
