16

C       0.017177    1.584797   -0.055859
C      -0.000515    0.055391    0.002696
C       0.690523   -0.579446   -1.204556
C       0.690728   -2.093292   -1.176564
O       0.201063   -2.763814   -0.296190
C       1.340570   -2.740463   -2.315849
C       1.876338   -3.284584   -3.254510
C       2.481181   -3.895927   -4.314372
N       2.996949   -4.412393   -5.217900
H       1.041796    1.972092   -0.077566
H      -0.496231    1.956542   -0.949464
H      -0.482095    2.014654    0.817196
H       0.488109   -0.295047    0.917885
H      -1.031278   -0.310425    0.056291
H       0.221182   -0.265295   -2.148264
H       1.736347   -0.249623   -1.288922
