21

C      -0.183583    1.593414   -0.052393
C      -0.247556    0.089449   -0.222830
C      -0.201094   -0.819301    0.981373
C      -1.477792   -0.677251    0.187186
C       1.242063    2.126190    0.060385
C       2.180038    2.074881   -1.209505
C       2.310743    3.599664   -1.114486
O       0.988179    4.142938   -1.214724
C       1.427107    3.655523    0.059917
H      -0.676091    2.091462   -0.895841
H      -0.745070    1.875886    0.849139
H       0.262233   -0.281633   -1.108964
H       0.348436   -1.751694    0.912166
H      -0.164473   -0.356631    1.962852
H      -2.293568   -0.120038    0.636617
H      -1.798367   -1.511841   -0.426623
H       1.753470    1.676509    0.917902
H       3.113842    1.539629   -1.023220
H       1.730585    1.713833   -2.138448
H       3.131040    4.241216   -1.414921
H       1.388695    4.350986    0.891309
