15

N       0.134715    1.391880    0.095294
C      -0.001125   -0.006334    0.009469
C      -1.122737   -0.818669   -0.030971
C      -0.601805   -2.137397   -0.013034
C       0.775840   -2.107458    0.022867
N       1.149737   -0.779329    0.022888
C       1.227601   -3.460158   -0.009507
C       0.079921   -4.200774   -0.051728
O      -1.051864   -3.417609   -0.059782
H       0.448197    1.807407   -0.777738
H      -0.745608    1.823371    0.347150
H      -2.145889   -0.485876   -0.093366
H       2.055836   -0.401678    0.237496
H       2.231953   -3.852520    0.007830
H      -0.097970   -5.262799   -0.071281
