12

N       0.084631   -1.123158   -0.048511
C       0.029729    0.032969   -0.036616
C      -0.085760    1.448200   -0.020198
C      -0.943593    2.434823    0.816274
C      -0.786074    3.481661   -0.293783
C       0.234362    3.369331    0.809510
N       1.099444    2.399341   -0.003037
C       0.079332    2.480246   -1.094019
H      -1.744117    2.288153    1.525181
H      -1.452613    4.281983   -0.577502
H       0.620173    4.068783    1.538396
H       0.331933    2.359288   -2.140094
