19

C       0.035586    1.533652   -0.076686
C       0.005957    0.015144   -0.033101
O       0.677226   -0.482372   -1.172293
C       0.707029   -1.892538   -1.225014
C       1.458357   -2.292772   -2.486509
C       1.577567   -3.806280   -2.624853
N       2.090505   -4.230477   -3.818038
O       1.239165   -4.582057   -1.751096
H       1.067117    1.897459   -0.079192
H      -0.458841    1.901400   -0.980420
H      -0.477951    1.950876    0.794666
H       0.490813   -0.355593    0.886051
H      -1.034675   -0.351346   -0.014558
H       1.205903   -2.313277   -0.339645
H      -0.312642   -2.307907   -1.240996
H       0.957969   -1.873803   -3.367336
H       2.463317   -1.852723   -2.465774
H       2.447220   -3.590580   -4.505693
H       2.265980   -5.214772   -3.935777
