19

O       0.074464   -0.130024   -0.073583
C       0.049883    1.073886   -0.123656
C       1.266956    1.965200   -0.087115
C       1.300589    3.021837   -1.231003
C       1.929401    4.253108   -0.575918
C       1.220834    4.910136    0.598135
C       0.243764    3.935811    1.251585
C       1.362621    2.837693    1.189243
C       2.381704    3.952775    0.824037
H      -0.920906    1.618199   -0.198913
H       2.146638    1.315723   -0.138233
H       1.896846    2.665492   -2.075343
H       0.295371    3.230222   -1.618123
H       2.531543    4.920354   -1.182554
H       1.204897    5.989141    0.701020
H       0.033690    4.217104    2.286317
H      -0.707552    3.737936    0.745580
H       1.520767    2.266338    2.103245
H       3.372054    4.111914    1.228869
