17

C      -0.020194    1.457191    0.015375
C      -0.000278   -0.036407   -0.021363
C      -0.035766   -0.833455   -1.116180
C       0.004917   -2.201449   -0.645529
C       0.064874   -2.287334    0.713953
C       0.067257   -0.885711    1.253433
C       0.098516   -3.680684    1.016121
C       0.055520   -4.315597   -0.194199
O      -0.002496   -3.415940   -1.233074
H       0.877581    1.862758    0.500109
H      -0.074614    1.877296   -0.992728
H      -0.878675    1.837258    0.584499
H      -0.085170   -0.507804   -2.146385
H       0.967521   -0.645543    1.834426
H      -0.786627   -0.671637    1.909764
H       0.147235   -4.169270    1.977262
H       0.058292   -5.352897   -0.484022
