18

O      -0.059447    0.175319   -0.942297
C       0.018829    1.127037   -0.185986
N       1.168673    1.540018    0.419036
C       2.458871    0.908322    0.187058
C       3.518535    1.916343   -0.194394
C       4.238160    2.700194    0.879508
C       4.965778    1.629748    0.105006
C      -1.139437    1.945383    0.160146
C      -2.113256    2.598282    0.426630
H       1.128806    2.353435    1.012788
H       2.777380    0.360655    1.085530
H       2.300306    0.172056   -0.604460
H       3.310584    2.448054   -1.118660
H       4.484986    3.737531    0.683821
H       3.992134    2.490084    1.916028
H       5.203520    0.705357    0.621095
H       5.708451    1.933357   -0.623634
H      -2.982748    3.166077    0.652365
