21

C      -0.399655    1.465705   -0.118813
C      -0.086332   -0.004906    0.035714
C       1.286910   -0.566204   -0.254830
O       2.332194    0.362413   -0.365734
C       2.856580    0.596966    0.948410
C       1.681961    0.394016    1.925869
C       0.772666   -0.574200    1.161224
C       0.339858   -1.839112    1.850159
O       1.502019   -2.526181    2.302431
H       0.506849    2.072753   -0.069665
H      -0.861965    1.651834   -1.093837
H      -1.095857    1.816006    0.651233
H      -0.902068   -0.665496   -0.254167
H       1.417267   -1.470390   -0.843036
H       3.659282   -0.123636    1.161661
H       3.278960    1.605904    0.960640
H       2.017244   -0.059532    2.860902
H       1.182597    1.339083    2.161104
H      -0.325266   -1.598449    2.695838
H      -0.239521   -2.460331    1.148645
H       1.221113   -3.255122    2.863339
