19

C       0.150212    1.319738   -0.600969
C      -0.096625    0.135949    0.351391
C      -1.478584   -0.426589    0.267973
N      -2.415157   -0.325817    1.178949
C      -3.538539   -0.969999    0.679791
C      -4.814709   -1.063209    1.450497
C      -3.245586   -1.461122   -0.564203
O      -3.927049   -2.162860   -1.506232
N      -1.942758   -1.118489   -0.829221
H       1.169905    1.701294   -0.490044
H       0.016311    1.028664   -1.648476
H      -0.546904    2.136089   -0.391147
H       0.644384   -0.650622    0.154050
H       0.046760    0.454073    1.387167
H      -5.222531   -0.071294    1.675680
H      -5.583641   -1.613997    0.895399
H      -4.670222   -1.578805    2.406559
H      -4.815932   -2.325445   -1.175344
H      -1.443567   -1.352137   -1.670990
