15

O       0.191403    1.393513    0.282193
C       0.053515    0.036143    0.014806
C      -1.323203   -0.659216    0.068643
C      -2.184856   -0.244786   -1.089298
C      -2.139502    1.058867   -1.700380
C      -2.113582    2.146116   -2.216808
C      -1.092140   -1.303228   -1.310925
C       0.230617   -0.583655   -1.419153
O       1.119640   -0.586379   -2.217123
H      -0.355248    1.877864   -0.349908
H       0.759645   -0.490087    0.669055
H      -1.755294   -1.128348    0.943034
H      -3.179201   -0.684163   -1.071878
H      -2.094379    3.098999   -2.686558
H      -1.346558   -2.287886   -1.680792
