23

C       0.152855    1.612180    0.014989
C      -0.041272    0.088799   -0.006901
O      -1.449119   -0.202590   -0.104284
C       0.591394   -0.492755   -1.288460
C       0.221026   -1.943243   -1.625284
C       0.712160   -3.019748   -0.648253
C       0.081485   -2.958001    0.755672
C       0.560519   -1.801506    1.600572
C       0.538526   -0.510405    1.267834
H       1.216197    1.875830    0.007581
H      -0.328244    2.066177   -0.855007
H      -0.291580    2.045321    0.918695
H      -1.840086   -0.010494    0.754361
H       0.272923    0.139216   -2.126649
H       1.679778   -0.384948   -1.208743
H      -0.868353   -2.010511   -1.715456
H       0.629314   -2.168040   -2.618486
H       0.486486   -4.002131   -1.081214
H       1.804880   -2.967305   -0.553087
H      -1.010037   -2.906463    0.649195
H       0.297920   -3.892997    1.282785
H       0.972839   -2.059102    2.574548
H       0.939895    0.207911    1.980497
