16

C      -0.013522    1.417646   -0.026070
N      -0.009923   -0.037873   -0.004914
N      -0.053751   -0.656815   -1.173294
C      -0.054499   -1.955223   -1.180269
C      -0.001614   -2.692702    0.059562
N      -0.039927   -4.054214    0.020207
N       0.049016   -2.090713    1.214206
C       0.035993   -0.708299    1.244407
N       0.068119    0.024603    2.292959
H       0.884262    1.800075    0.465882
H      -0.049063    1.727803   -1.069525
H      -0.877991    1.796747    0.524656
H      -0.098621   -2.440672   -2.148376
H       0.189386   -4.532320   -0.834120
H       0.159875   -4.534809    0.883313
H       0.100049   -0.585471    3.107888
