23

C      -0.260860    1.539557    0.044395
C      -0.203441    0.032705    0.229976
O      -1.394413   -0.530275   -0.289255
C      -1.445523   -1.926462   -0.197270
C      -1.755323   -2.587622    1.177980
C      -2.720797   -3.552804    0.432982
C      -4.044943   -3.896473    1.094210
O      -4.880429   -4.695944    0.270622
C      -2.734131   -2.552568   -0.762567
H       0.649053    2.007474    0.431959
H      -0.358018    1.791482   -1.015471
H      -1.120253    1.958885    0.575315
H       0.671796   -0.389444   -0.292675
H      -0.093291   -0.219869    1.297017
H      -0.546072   -2.374209   -0.649297
H      -0.932809   -3.022465    1.749923
H      -2.307594   -1.886373    1.813154
H      -2.211973   -4.480637    0.152980
H      -3.873273   -4.484656    2.003067
H      -4.555285   -2.967277    1.399776
H      -5.071812   -4.189860   -0.525719
H      -3.556050   -1.833568   -0.671774
H      -2.707593   -2.944820   -1.781432
