18

O      -0.948593    0.948783    0.476359
C       0.042796    0.972861   -0.205867
C       1.192076    1.938631   -0.031497
C       1.439045    2.754815   -1.317295
C       2.643397    3.668044   -1.217002
C       2.613453    5.018408   -1.871414
N       2.595205    4.916879   -0.417373
C       3.983547    3.009230   -1.149797
O       4.170578    1.831898   -1.334260
H       0.175148    0.255194   -1.049775
H       0.979035    2.583666    0.825848
H       2.092967    1.350690    0.183981
H       1.596724    2.066651   -2.155647
H       0.550718    3.352389   -1.553313
H       3.520851    5.442823   -2.293035
H       1.701333    5.273401   -2.404720
H       1.651295    5.049758   -0.061066
H       4.812825    3.711871   -0.916500
