18

C      -0.043660    1.497810    0.019446
C       1.261075    0.771297   -0.058996
C      -0.023004   -0.021871    0.075537
C      -0.309987   -0.687713    1.354503
N       0.117061   -0.357604    2.513224
C      -0.492119   -1.268389    3.449636
C      -2.007172   -1.235592    3.527716
C      -1.333128   -2.209953    2.605795
O      -1.134729   -1.778138    1.269691
H      -0.281037    2.005510    0.946782
H      -0.444420    1.955769   -0.877868
H       1.774868    0.721745   -1.012174
H       1.899548    0.788794    0.815963
H      -0.385811   -0.560444   -0.790965
H       0.095948   -1.555041    4.313021
H      -2.461193   -1.661282    4.416042
H      -2.525459   -0.382073    3.103085
H      -1.430175   -3.283916    2.695244
