15

C      -0.008767    1.494975    0.039113
C      -0.023937    0.001465    0.022047
C      -0.049443   -0.821480   -1.047240
O      -0.056044   -2.150552   -0.646994
C      -0.031789   -2.158833    0.692491
N      -0.099087   -3.376255    1.307209
C      -0.007017   -0.871220    1.184704
C       0.039920   -0.521560    2.547732
N       0.084513   -0.255006    3.676790
H       0.884920    1.876405    0.544907
H      -0.023912    1.898836   -0.976176
H      -0.875251    1.893409    0.577926
H      -0.065346   -0.663223   -2.111356
H       0.275138   -4.150038    0.777784
H       0.168621   -3.376726    2.280367
