19

O      -0.089344    1.382540   -0.045472
C       0.044764    0.005059   -0.043355
C       0.890621   -0.792061   -1.036015
C      -0.124745   -1.977746   -0.839944
O      -0.668509   -2.550657   -1.997056
C       0.380405   -2.962064    0.228717
C       0.536824   -2.082208    1.495984
C      -0.293512   -0.833701    1.181797
C      -1.076383   -1.001574   -0.100761
H       0.620517    1.756476    0.488288
H       0.780640   -0.381519   -2.042846
H       1.950274   -0.969859   -0.813601
H       0.019852   -3.069178   -2.427498
H      -0.377865   -3.738070    0.378609
H       1.313505   -3.454752   -0.067708
H       0.154081   -2.591979    2.384851
H       1.585239   -1.836149    1.698333
H      -0.757317   -0.271179    1.984843
H      -2.142990   -0.891958   -0.238230
