20

O      -0.237515    1.552682    0.065401
C      -0.002575    0.153905    0.145258
C      -1.343788   -0.538741   -0.044430
C      -2.000922   -0.325256   -1.417109
C      -3.108030   -1.401469   -1.496757
C      -2.703482   -2.513850   -0.485797
C      -1.322433   -2.085136    0.094878
C      -0.216877   -2.688558   -0.655410
N       0.651568   -3.167468   -1.250601
H       0.611824    2.002319    0.095123
H       0.700368   -0.180658   -0.632044
H       0.428910   -0.121870    1.121533
H      -2.022647   -0.168617    0.734914
H      -2.376066    0.691968   -1.537985
H      -1.251666   -0.490640   -2.200676
H      -4.079405   -0.981381   -1.220763
H      -3.212993   -1.795143   -2.510473
H      -3.419962   -2.569286    0.338139
H      -2.656752   -3.506053   -0.938140
H      -1.212679   -2.395825    1.138657
