24

C       0.001074    1.600918    0.084860
C       0.016633    0.069198    0.046508
C      -1.374533   -0.564062   -0.046353
C      -2.148515   -0.243038   -1.357095
C      -2.966168   -1.518359   -1.704493
C      -2.767665   -2.490867   -0.518238
C      -2.932699   -3.965161   -0.880979
C      -1.380128   -2.101371    0.014715
H       1.014583    2.006694    0.164337
H      -0.453659    2.020692   -0.818508
H      -0.571995    1.968089    0.943962
H       0.618946   -0.270866   -0.807616
H       0.523069   -0.308251    0.944671
H      -1.970225   -0.197616    0.802550
H      -2.787604    0.636692   -1.240965
H      -1.443205   -0.008292   -2.162572
H      -4.023505   -1.306566   -1.889813
H      -2.576720   -1.980685   -2.619481
H      -3.503709   -2.239984    0.259185
H      -2.208257   -4.261172   -1.649204
H      -2.778935   -4.612645   -0.010864
H      -3.934567   -4.170715   -1.273805
H      -0.603095   -2.504623   -0.651731
H      -1.178148   -2.489399    1.018833
