19

C       0.032990    1.480120   -0.207551
C      -0.083393   -0.008819    0.143100
C      -1.499610   -0.514172    0.108238
C      -2.638476   -0.155516    1.077633
C      -3.401165   -1.368314    0.475409
C      -2.010410   -1.908519   -0.053459
C      -2.164908   -0.910517   -1.229251
C      -3.640803   -0.941898   -0.988972
O      -4.610722   -0.886194   -1.691524
H       1.073289    1.814311   -0.155643
H      -0.336714    1.676835   -1.218845
H      -0.550106    2.096082    0.484790
H       0.529203   -0.603406   -0.546239
H       0.326876   -0.185115    1.146148
H      -2.334882   -0.336903    2.113241
H      -3.117529    0.826807    0.996192
H      -4.155033   -1.919554    1.030242
H      -1.558542   -2.888426   -0.079981
H      -1.617000   -0.894126   -2.161886
