21

C       0.069251    1.566299    0.011679
C       0.074024    0.043524    0.198388
C      -1.320198   -0.554751    0.066189
C      -2.021418   -0.743657   -1.323004
C      -1.097578   -1.968770   -1.576862
C      -1.555670   -2.092666   -0.095388
C      -2.998712   -1.749726   -0.614760
C      -4.015666   -1.269454    0.298401
C      -4.890370   -0.898884    1.037045
H       1.069385    1.987166    0.153795
H      -0.268835    1.841154   -0.993244
H      -0.602166    2.050949    0.728963
H       0.780881   -0.404904   -0.507303
H       0.455600   -0.196842    1.199667
H      -1.978136   -0.098873    0.813153
H      -2.313884    0.028940   -2.035829
H      -1.475910   -2.727493   -2.267743
H      -0.042244   -1.771740   -1.760398
H      -1.305582   -2.881524    0.616122
H      -3.415592   -2.505583   -1.288003
H      -5.657159   -0.566929    1.692241
