11

F      -0.020769    0.027922    0.004492
C      -0.038922    1.353368    0.011090
C      -1.202501    2.049790    0.029683
N      -1.263992    3.422998    0.037107
C      -0.128956    4.042738    0.025255
N       1.078437    3.417240    0.006420
C       1.256059    2.018188   -0.002720
O       2.356132    1.509351   -0.019473
H      -2.149000    1.518088    0.039521
H      -0.101171    5.128795    0.030154
H       1.935967    3.955549   -0.002175
