19

C       0.256146    1.525286    0.162658
C      -0.244964    0.109536   -0.144048
C       0.447457   -0.493629   -1.344506
N       1.774921   -1.091868   -1.108040
C       0.666405   -1.949167   -1.496284
C       0.133593   -3.182268   -0.740553
N       0.041607   -3.823013   -2.063066
C       0.558359   -2.766442   -2.779410
O       0.825959   -2.594064   -3.939695
H       1.332135    1.516170    0.361061
H       0.074330    2.201574   -0.679862
H      -0.248775    1.941710    1.039295
H      -0.076306   -0.538876    0.722858
H      -1.326910    0.124545   -0.328001
H       0.316087    0.049218   -2.280929
H       2.386658   -0.951182   -1.910450
H       0.859675   -3.644140   -0.065248
H      -0.828660   -3.056787   -0.234453
H      -0.250239   -4.745588   -2.344899
