16

O      -0.028528    1.444321    0.010223
C       0.036608    0.028469    0.001812
C      -1.392094   -0.499637    0.012733
C      -1.435925   -2.041114    0.004797
C      -2.789682   -2.572469    0.014895
C      -3.922109   -2.999408    0.023779
C      -5.195949   -3.478482    0.033365
C      -6.325785   -3.905140    0.041357
H       0.869137    1.789074    0.002987
H       0.564686   -0.343543   -0.892311
H       0.581847   -0.353279    0.881417
H      -1.908251   -0.119021    0.899596
H      -1.925243   -0.109485   -0.859818
H      -0.906607   -2.420919   -0.879959
H      -0.889688   -2.430390    0.875026
H      -7.319575   -4.277892    0.048688
