17

N      -0.274690   -1.052033    0.279867
C      -0.141145    0.095250    0.238039
C       0.060177    1.541481    0.175706
C       1.514191    1.926640   -0.180242
C       1.674925    3.468235   -0.272224
C       2.425932    3.839263    1.033842
O       2.394391    2.677870    1.853249
C       2.481502    1.576003    0.965456
H      -0.635685    1.957061   -0.561243
H      -0.200481    1.976285    1.147707
H       1.795922    1.430195   -1.111709
H       2.247615    3.757292   -1.156261
H       0.704181    3.967445   -0.337654
H       3.466872    4.121180    0.813087
H       1.961643    4.655618    1.592223
H       2.213688    0.669512    1.513723
H       3.507302    1.461329    0.578730
