20

C      -0.118896    1.516617    0.064900
C      -0.007062    0.026912   -0.008835
C      -0.045898   -0.741099   -1.099909
C       0.047537   -2.212614   -0.781973
C       0.508198   -2.226389    0.702475
C       2.037594   -2.428057    0.815900
C       2.482635   -3.731474    0.327408
N       2.816912   -4.767942   -0.060022
C       0.123075   -0.822631    1.240524
H       0.762400    1.959156    0.546761
H      -0.224183    1.963261   -0.927363
H      -0.984870    1.819838    0.667528
H      -0.167965   -0.369556   -2.111964
H      -0.927948   -2.704283   -0.898178
H       0.738035   -2.758865   -1.435160
H       0.019295   -3.024099    1.266776
H       2.553674   -1.645566    0.246322
H       2.355178   -2.325839    1.859679
H       0.864255   -0.426848    1.947573
H      -0.829718   -0.851126    1.787401
