14

O      -0.178534    1.309240   -0.100465
N      -0.018395   -0.085674   -0.087701
C      -1.136643   -0.677690   -0.053832
C      -1.448968   -2.115015    0.147652
C      -2.800130   -1.727580    0.677905
C      -2.615198   -0.285034    0.084696
N      -3.177523   -0.347306   -1.284942
C      -3.143632   -1.581367   -1.582219
N      -2.740731   -2.510489   -0.553870
H       0.734092    1.617774   -0.112540
H      -0.775756   -2.921376    0.402591
H      -3.347168   -2.073234    1.546487
H      -2.874596    0.615120    0.633229
H      -3.410689   -1.983808   -2.553195
