18

C      -0.093895    1.583656    0.000322
C       0.036358    0.069689    0.000511
O      -1.228900   -0.563926   -0.111079
C       1.106902   -0.566481   -0.952766
C       1.765681   -1.292163    0.258748
C       0.740937   -0.610341    1.220128
N       1.865915    0.109600    1.808951
C       2.825389   -0.412150    0.956857
O       3.998242   -0.191936    0.825235
H       0.869837    2.067942    0.181134
H      -0.460315    1.935878   -0.971792
H      -0.803850    1.905983    0.768721
H      -1.618337   -0.309077   -0.954794
H       0.645844   -1.253847   -1.664530
H       1.762382    0.122716   -1.490465
H       1.939560   -2.363958    0.205763
H       0.087115   -1.139003    1.913624
H       1.891490    0.949509    2.371004
