17

C       0.027461    1.438051    0.048987
N       0.099831   -0.009936    0.047524
C       0.586459   -0.639223   -0.952281
C       0.663211   -2.089315   -0.962878
C       1.181001   -2.724574   -2.030072
C       1.330679   -4.204953   -2.196610
N       1.619201   -1.936776   -3.077588
N       1.563254   -0.579594   -3.102600
N       1.084740    0.039699   -2.119766
H       0.577803    1.817821    0.919346
H       0.414124    1.921218   -0.853599
H      -1.018167    1.738760    0.193373
H       0.297967   -2.634184   -0.102007
H       0.776091   -4.562441   -3.072260
H       2.382136   -4.482889   -2.335653
H       0.951791   -4.723385   -1.314482
H       2.019840   -2.327997   -3.914378
