19

C      -0.207593    1.573349    0.041131
C       0.044882    0.057683    0.002853
C       0.874935   -0.413117   -1.171737
C       1.880757   -1.225200   -0.802111
C       2.796882   -1.884658   -1.735607
O       3.681675   -2.643666   -1.405848
C       1.946815   -1.371714    0.682212
C       2.237044   -0.084330    1.425498
C       0.808086   -0.511068    1.207678
H       0.730855    2.129905    0.119378
H      -0.726739    1.909253   -0.862459
H      -0.828968    1.836931    0.902278
H      -0.937989   -0.435271   -0.059767
H       0.668166   -0.111860   -2.194367
H       2.612934   -1.645484   -2.807339
H       2.237649   -2.320031    1.115757
H       2.621339   -0.171331    2.436085
H       2.643571    0.748010    0.860176
H       0.236145   -0.815920    2.076103
