21

C      -0.121256    1.566351   -0.018053
C       0.055362    0.049375    0.008040
C       0.879043   -0.531070   -1.174513
C       1.379336   -1.883484   -0.666920
C       2.533084   -1.952552    0.349319
C       3.102742   -0.672768    0.861849
C       2.155215    0.089906    1.412691
C       0.779401   -0.542601    1.259215
C       1.094443   -1.989935    0.808497
H       0.845596    2.080113   -0.021618
H      -0.666000    1.880916   -0.914794
H      -0.686861    1.918869    0.851643
H      -0.938423   -0.418116   -0.020561
H       0.267866   -0.646466   -2.074510
H       1.704361    0.143114   -1.431007
H       1.262625   -2.753105   -1.304828
H       3.142000   -2.850322    0.332138
H       4.150846   -0.411840    0.768728
H       2.303581    1.086046    1.813099
H       0.160694   -0.469749    2.158742
H       0.637466   -2.853177    1.276423
