22

C       0.036355    1.591885   -0.037056
C       0.038224    0.060265    0.033524
C       0.709971   -0.614131   -1.192499
C       1.464461   -1.818653   -0.624292
C       1.331578   -3.191251   -1.191666
N       2.594628   -2.443467   -1.335306
C       1.575745   -1.548300    0.832033
C       0.804624   -0.527293    1.214934
C       0.616380   -0.018453    2.609940
H       1.059518    1.982394   -0.077834
H      -0.491254    1.938835   -0.931804
H      -0.460254    2.036074    0.831421
H      -1.009741   -0.270442    0.107057
H      -0.002845   -0.881305   -1.977951
H       1.434830    0.084937   -1.630244
H       1.388485   -4.061623   -0.542574
H       0.693675   -3.319837   -2.063381
H       2.659135   -2.057580   -2.275121
H       2.194993   -2.155702    1.482904
H       1.199041   -0.600117    3.329179
H       0.916966    1.032359    2.702637
H      -0.439030   -0.066445    2.909869
