18

O       0.144202    1.389187   -0.270944
C       0.039197    0.010064   -0.005652
C       0.289298   -0.517434    1.454502
C      -1.136714   -1.148200    1.431499
O      -1.265209   -2.523224    1.630672
C      -2.309724   -0.276166    1.933260
C      -2.164157    1.155327    1.620934
N      -2.586905    0.254392    0.527281
C      -1.406791   -0.561532    0.032152
H       1.078549    1.614594   -0.320499
H       0.632437   -0.569841   -0.725842
H       1.077561   -1.271790    1.515865
H       0.462155    0.255577    2.207586
H      -1.149612   -2.705017    2.570478
H      -3.114936   -0.675218    2.544843
H      -2.978909    1.804392    1.931822
H      -1.198626    1.642125    1.575995
H      -1.717712   -1.177521   -0.810683
