17

O       0.390270    1.133168   -0.506227
C       0.079286   -0.152214   -0.031217
C       0.233056   -0.288717    1.503771
C      -1.280461   -0.705117    1.617897
C      -2.194113    0.325288    2.218566
C      -2.807119    1.083000    1.297073
C      -2.364820    0.697994   -0.063393
O      -2.607267    1.261939   -1.110052
C      -1.444334   -0.509456    0.092337
H      -0.168146    1.312151   -1.273030
H       0.630843   -0.925380   -0.583209
H       0.939791   -1.054406    1.827695
H       0.477300    0.659127    1.986257
H      -1.440598   -1.706221    2.023695
H      -2.294381    0.449314    3.292543
H      -3.484300    1.908309    1.475915
H      -1.780353   -1.347768   -0.519132
