20

C      -0.760750    0.915575    0.782384
C       0.042808   -0.257142    0.281597
O       1.213975    0.032559   -0.490152
C       1.384893   -0.645168    0.756651
C       2.191146    0.072706    1.824625
C       2.123972   -0.628053    3.158947
C       0.836138   -0.655802    3.937970
N       3.206546   -1.186146    3.549538
O       3.041791   -1.833289    4.784746
H      -0.129391    1.687203    1.227582
H      -1.310355    1.371766   -0.047717
H      -1.495393    0.587357    1.525860
H      -0.564079   -1.060200   -0.143639
H       1.658079   -1.697589    0.648766
H       3.236390    0.104597    1.502966
H       1.843256    1.106387    1.923349
H       0.387984   -1.655665    3.908200
H       1.026413   -0.431520    4.990946
H       0.113706    0.057655    3.538042
H       3.929384   -2.163821    4.958254
