14

O      -0.190176    0.026619   -0.002304
C      -0.003933    1.192438    0.208958
C       1.331510    1.897608   -0.003362
O       2.357021    0.941682   -0.297444
C       2.737346    1.185152   -1.573720
N       2.267900    2.179571   -2.200784
C       1.356996    2.863664   -1.253852
C       0.046181    3.134453   -1.835051
C      -1.038024    3.368443   -2.295755
H      -0.801342    1.865244    0.589990
H       1.597324    2.428740    0.916539
H       3.458282    0.478628   -1.968085
H       1.817067    3.819432   -0.974512
H      -1.993817    3.566953   -2.715045
