21

C      -0.111345    1.581015    0.094221
C       0.012186    0.060169    0.027221
C       0.755811   -0.437998   -1.268211
C       0.864390   -1.972071   -1.268436
C       1.814538   -2.957809   -0.528834
C       2.406488   -2.537823    0.850657
C       1.057629   -1.864770    1.057577
C       0.858755   -0.546228    1.121505
C       0.403160   -2.697056   -0.040896
H       0.876759    2.054825    0.124679
H      -0.641116    1.976205   -0.778773
H      -0.657741    1.893540    0.989957
H      -0.990140   -0.383775    0.011871
H       0.201385   -0.123757   -2.161988
H       1.734418    0.053599   -1.321222
H       0.551986   -2.428379   -2.206550
H       2.164400   -3.828082   -1.076201
H       2.574839   -3.446120    1.440987
H       3.297967   -1.903113    0.889142
H       1.582123    0.097804    1.620596
H      -0.446552   -3.362943    0.040091
