18

C      -0.121765    1.521521   -0.020879
C       0.076450    0.023185   -0.008331
C       0.822228   -0.607970   -1.193995
C       0.952337   -2.038470   -0.637951
C       1.334921   -1.754401    0.812822
C       0.825400   -0.574470    1.174062
N      -0.385140   -2.671953   -0.618247
C      -1.333089   -1.887459   -0.301591
O      -1.276251   -0.568753    0.003732
H       0.849254    2.024945    0.001953
H      -0.658797    1.835192   -0.920427
H      -0.699306    1.840698    0.851904
H       0.258756   -0.555357   -2.129232
H       1.797979   -0.133344   -1.324248
H       1.642692   -2.685518   -1.180528
H       1.832756   -2.471177    1.454469
H       0.818155   -0.136610    2.164967
H      -2.359552   -2.245534   -0.239364
