22

C      -0.087370    1.594112   -0.124101
C      -0.025490    0.065814   -0.178235
C      -1.369117   -0.595738    0.184378
C      -1.339120   -2.094541    0.154830
C      -1.591012   -2.921876    1.176751
C      -1.569178   -4.346808    0.742374
N      -2.621607   -4.646489   -0.276759
C      -1.242885   -4.328813   -0.708888
C      -1.045417   -2.875552   -1.122463
H       0.877306    2.042122   -0.382126
H      -0.834384    1.985185   -0.823996
H      -0.360195    1.944241    0.877734
H       0.280969   -0.251926   -1.182329
H       0.747925   -0.300388    0.508261
H      -1.680300   -0.258898    1.180668
H      -2.135528   -0.231916   -0.516400
H      -1.838076   -2.608952    2.184941
H      -1.254264   -5.141469    1.410501
H      -2.738677   -5.657916   -0.327996
H      -0.652476   -5.109014   -1.177141
H      -1.722758   -2.586568   -1.935807
H      -0.022785   -2.699180   -1.480844
