18

O       1.205634    1.602099    0.495401
C       0.528443    0.552428   -0.170490
C       1.333840    0.143005   -1.411925
O       0.661244   -0.851779   -2.177490
C      -0.097670   -0.431374   -3.212011
N      -0.821682   -1.252961   -3.836404
C       0.243512   -0.658390    0.737756
C      -0.569522   -0.328954    1.899998
C      -1.242552   -0.050918    2.855559
H       1.895094    1.219894    1.049162
H      -0.428009    0.978113   -0.496541
H       1.538519    1.036341   -2.014036
H       2.293895   -0.292391   -1.112636
H       0.013122    0.641757   -3.423875
H      -1.304583   -0.782365   -4.598675
H      -0.243628   -1.433294    0.134955
H       1.203922   -1.088269    1.061926
H      -1.839272    0.191046    3.699750
