17

O      -0.261686    1.144249   -0.996614
C      -0.296084   -0.163658   -0.550697
C      -0.191525   -0.389849    0.925832
C      -1.503134   -0.664745    0.211559
N      -2.631854    0.205452    0.453542
C      -3.354062    0.782841   -0.583489
N      -2.946353    0.773036   -1.790304
C      -3.130413    0.324787    1.749106
O      -4.118547    0.945160    2.057105
H      -1.004703    1.217997   -1.621158
H       0.166595   -0.902483   -1.205701
H       0.371426   -1.233840    1.306358
H      -0.146529    0.510481    1.528062
H      -1.782944   -1.702818    0.051951
H      -4.279951    1.230067   -0.219920
H      -3.621718    1.238798   -2.392477
H      -2.500243   -0.221870    2.470640
