18

C       0.070006    1.422528    0.036348
C       1.319225    0.646752   -0.038782
C       1.713208    0.111019    1.334059
C       0.307616   -0.531830    1.376782
C       0.099789   -2.071519    1.559656
C      -0.909553   -1.755225    2.667449
O      -0.217768   -0.974961    3.653299
C      -0.726602   -0.306798    2.491980
N      -0.034817   -0.053332   -0.009028
H      -0.185299    1.950294    0.953112
H      -0.294651    1.892185   -0.871755
H       1.939303    0.628156   -0.928800
H       2.505551   -0.639034    1.300215
H       1.960569    0.851680    2.100002
H      -0.354323   -2.495843    0.661433
H       0.966931   -2.661407    1.866857
H      -1.772781   -2.319488    2.999184
H      -1.406614    0.523682    2.644491
