21

C      -0.049411    1.364186   -0.007904
C      -0.252176   -0.080975    0.404904
O       0.059046   -0.988705   -0.683552
C       0.960622   -1.754246    0.132723
C       2.432809   -1.525792   -0.220292
O       2.801992   -0.307395    0.416698
C       2.125415   -0.300771    1.675248
C       2.282435    1.052583    2.348541
C       0.721702   -0.838291    1.360422
H       0.980742    1.540965   -0.322596
H      -0.710523    1.583648   -0.852950
H      -0.306868    2.049283    0.806385
H      -1.295167   -0.227736    0.720390
H       0.680536   -2.811706    0.177867
H       3.044698   -2.361013    0.159682
H       2.593699   -1.420593   -1.295734
H       2.596526   -1.058774    2.330396
H       1.866179    1.863299    1.750679
H       1.782430    1.045031    3.322133
H       3.343308    1.260611    2.513698
H       0.239406   -1.277074    2.234525
