25

C      -0.097752    1.621654    0.028507
C      -0.078730    0.090777    0.035037
C       0.720690   -0.497952    1.202518
C       0.746866   -2.031575    1.210669
C       1.525926   -2.603585    2.391839
C       0.806375   -2.578160    3.759332
O       0.702473   -4.014457    3.789243
C       1.526302   -4.146520    2.605238
C       0.918012   -5.079618    1.576853
H       0.916361    2.030069   -0.045404
H      -0.675349    2.011095   -0.815647
H      -0.545106    2.015890    0.947798
H      -1.108324   -0.288833    0.074692
H       0.341587   -0.275360   -0.911100
H       1.751237   -0.117513    1.166472
H       0.298201   -0.133342    2.149337
H      -0.283735   -2.409212    1.228859
H       1.188736   -2.390301    0.271319
H       2.530278   -2.169533    2.411260
H       1.402138   -2.191625    4.597012
H      -0.180102   -2.096591    3.776855
H       2.525215   -4.516065    2.882793
H      -0.074634   -4.745850    1.264535
H       1.559951   -5.152398    0.692129
H       0.819082   -6.081967    2.005700
