23

C      -0.100361    1.597099   -0.239949
C      -0.000084    0.094355   -0.082944
C       1.317238   -0.617730   -0.220262
O       2.438751    0.188485   -0.456383
C       0.635018   -0.569647    1.134377
C       1.222683    0.212744    2.276965
C       0.303647    0.636497    3.461663
C       1.473463    0.324058    4.432595
C       2.118595   -0.534571    3.312502
H       0.831017    2.095363    0.032626
H      -0.314204    1.856835   -1.282331
H      -0.907324    2.006442    0.377248
H      -0.849584   -0.444974   -0.494625
H       1.331393   -1.568806   -0.753061
H       3.183413   -0.192994    0.020054
H       0.164009   -1.500386    1.447432
H       1.761750    1.085689    1.900597
H      -0.104671    1.650280    3.452833
H      -0.523692   -0.069414    3.589769
H       2.067575    1.216554    4.649910
H       1.233928   -0.169420    5.377368
H       1.828923   -1.587599    3.396561
H       3.203824   -0.484201    3.184459
