13

C      -0.072178    1.530466   -0.079457
C      -0.035239    0.034709    0.057448
O       1.211073   -0.622979   -0.139228
C       0.662056   -0.652381    1.188941
C       1.356851    0.085900    2.211955
C       1.923632    0.688069    3.082592
C       0.158814   -1.952504    1.606203
N      -0.258471   -2.976903    1.939370
H       0.770898    1.994296    0.435274
H      -0.032567    1.803161   -1.138710
H      -1.004941    1.922995    0.337209
H      -0.884553   -0.507899   -0.359862
H       2.431642    1.217783    3.851263
