17

O       0.172576    1.021683   -0.987917
C       0.074072   -0.068589   -0.107237
C       1.268631   -0.970712    0.042601
C       0.904552    0.008372    1.141575
C      -1.342519   -0.618317   -0.042088
C      -2.486363    0.341321   -0.108078
N      -2.205861   -0.549602   -1.239305
C      -1.498390   -1.825446    0.741708
N      -1.591916   -2.774806    1.394926
H       0.558787    0.709438   -1.812758
H       1.103565   -2.027246    0.219616
H       2.136122   -0.738384   -0.566618
H       1.516416    0.895921    1.248780
H       0.494094   -0.389369    2.062707
H      -3.398864    0.121901    0.436399
H      -2.221099    1.389991   -0.197175
H      -1.699433   -0.018551   -1.945652
