20

C       0.642570   -0.486281    1.196068
O      -0.078016   -0.694883   -0.001789
C       0.673155   -0.446042   -1.179355
C       1.788753   -1.392805   -1.337446
C       2.692322   -2.175144   -1.467846
C      -0.311401   -0.557310   -2.335311
C      -1.082303    0.639554   -2.771565
N      -0.079481    0.042038   -3.643625
C       1.140312    0.790512   -3.913630
H       1.503756   -1.162455    1.278794
H       1.003147    0.551429    1.273714
H      -0.049113   -0.683406    2.017957
H       1.088663    0.573414   -1.137862
H       3.491788   -2.864366   -1.587298
H      -0.783097   -1.536922   -2.374487
H      -2.117273    0.549600   -3.090424
H      -0.837831    1.583703   -2.283632
H       1.438453    1.489786   -3.116156
H       1.964412    0.091743   -4.083721
H       0.991216    1.374947   -4.826979
