19

C      -0.208408    1.626930   -0.053772
C       0.065076    0.131389    0.096547
O      -1.111582   -0.636072   -0.157882
C       1.296859   -0.665402   -0.330956
C       2.670886   -0.126223    0.156381
C       2.652554    1.143108    0.970976
C       2.194068   -0.143939    1.600388
C       0.821573   -0.666387    1.131624
O       0.212179   -1.618022    1.913002
H       0.519158    2.117940   -0.704113
H      -1.199087    1.752546   -0.500166
H      -0.219819    2.144156    0.910171
H      -1.207608   -0.736585   -1.111123
H       1.213850   -1.423645   -1.102143
H       3.595773   -0.530633   -0.234361
H       3.640361    1.452725    1.303727
H       1.991991    1.974731    0.773902
H       2.675736   -0.583432    2.463721
H      -0.632054   -1.806483    1.478382
