21

C      -1.429417   -0.867977   -0.077053
C       0.074425   -0.679396    0.159925
C       0.607861   -1.709346    1.163705
C       0.839896   -0.746949   -1.183092
C       2.294622   -0.370012   -1.084520
C       2.683763    1.045302   -0.745621
N       3.142474   -1.301842   -1.307925
O       4.465897   -0.838331   -1.182000
H      -1.827796   -0.106743   -0.756281
H      -1.634302   -1.849891   -0.519991
H      -1.987828   -0.805594    0.862666
H       0.223892    0.322671    0.586058
H       0.448215   -2.728995    0.793454
H       1.680983   -1.588843    1.336817
H       0.094935   -1.619657    2.126874
H       0.769897   -1.760186   -1.592356
H       0.352967   -0.069401   -1.898459
H       3.172500    1.090269    0.233798
H       3.412446    1.419241   -1.470852
H       1.815007    1.706495   -0.732486
H       4.974342   -1.626020   -1.400593
