17

N      -0.077246   -1.081959   -0.513913
C      -0.056847    0.033930   -0.215301
C      -0.002205    1.443658    0.180140
C       1.410664    1.993195    0.152787
C       2.486132    1.372428    1.036081
O       3.559816    2.306430    1.026076
C       3.003092    3.614325    0.915895
C       1.753072    3.437556    0.072287
N       1.877945    2.572288   -1.107789
H      -0.627047    2.025790   -0.503370
H      -0.431206    1.536908    1.185085
H       2.090567    1.217589    2.053765
H       2.870893    0.417248    0.665822
H       2.736099    4.028207    1.901722
H       3.764379    4.257828    0.463484
H       1.016641    4.233151    0.018343
H       2.855249    2.332072   -1.269377
