14

C      -0.000715    1.435365   -0.014666
N      -0.008348   -0.015185    0.017353
C       0.527567   -0.660792   -0.918201
O       1.136710    0.064196   -2.001403
C       1.712291   -0.595864   -3.006713
C       1.757987   -1.939170   -3.069678
C       1.133310   -2.603126   -1.961377
F       1.156808   -3.926271   -1.985152
N       0.566786   -2.036591   -0.970408
H       1.019211    1.842351   -0.030922
H      -0.519182    1.830909   -0.898359
H      -0.506675    1.810638    0.877407
H       2.130663    0.071802   -3.752312
H       2.223637   -2.474304   -3.882767
