17

C      -0.318562    1.369039    0.079779
C       0.250547   -0.042571   -0.110839
C       0.884835   -0.602187    1.144947
C       0.052574   -1.272994    2.227788
O      -1.302149   -1.558515    1.989762
C       0.981147   -2.099749    1.378178
O       0.402625   -2.981741    0.467519
H       0.457943    2.071045    0.402570
H      -0.749733    1.752342   -0.850335
H      -1.106299    1.388992    0.842772
H      -0.532932   -0.721411   -0.459137
H       1.003871   -0.027067   -0.907766
H       1.721453   -0.019950    1.526708
H       0.292836   -1.088055    3.273133
H      -1.778490   -0.733493    1.853303
H       1.888970   -2.497256    1.823363
H      -0.545020   -2.981949    0.661458
