18

C      -0.311381    1.810703    1.035710
C      -0.164780    0.498891    0.252940
C       0.630351   -0.519897    1.080441
N       1.843167   -0.879054    0.572122
O       0.193941   -0.968529    2.122567
C      -1.531448   -0.073973   -0.141191
O      -2.538174    0.598349   -0.119459
C      -1.613060   -1.516334   -0.622005
O      -2.881709   -1.814417   -1.124665
H       0.664271    2.281167    1.185695
H      -0.962939    2.500107    0.496974
H      -0.753918    1.607139    2.013103
H       0.352381    0.689681   -0.698775
H       2.242035   -0.436611   -0.236779
H       2.426730   -1.485679    1.126335
H      -0.839787   -1.680508   -1.389634
H      -1.349221   -2.161248    0.231610
H      -3.425796   -1.038958   -0.915219
