19

C       0.264535    1.381748   -0.165159
N      -0.012808   -0.047775   -0.057875
C      -0.142724   -0.587384    1.217116
O      -0.009241    0.054623    2.234378
C      -0.146408   -0.872928   -1.192702
N      -0.097377   -2.139396   -1.046999
C      -0.332545   -0.130119   -2.480882
C       0.865319    0.127963   -3.382110
C      -0.215706   -0.822772   -3.811454
H       1.092526    1.566752   -0.852087
H      -0.611610    1.944146   -0.505289
H       0.529519    1.725337    0.834242
H      -0.385371   -1.656448    1.184214
H      -0.296921   -2.606176   -1.928402
H      -1.051541    0.681221   -2.429241
H       0.940266    1.096472   -3.863430
H       1.813293   -0.302019   -3.078075
H       0.028310   -1.879347   -3.830454
H      -0.901180   -0.513901   -4.591930
