12

N      -0.025915    1.367808    0.149311
C       0.043762   -0.000779    0.040911
N      -1.054533   -0.738937    0.005660
O      -0.622664   -2.068380   -0.016619
C       0.704433   -2.059344   -0.010787
C       1.221271   -0.808158    0.025355
N       1.381079   -3.337835   -0.037789
O       2.605563   -3.288180   -0.041747
O       0.690589   -4.342878   -0.054257
H       0.718282    1.878165   -0.301186
H      -0.940802    1.749573   -0.047075
H       2.257464   -0.520583    0.048755
