18

C      -0.501706    1.409254    0.119723
C       0.351437    0.162313    0.039758
C       1.780747    0.176495    0.548304
C       0.713643   -0.602081    1.278503
O       0.199709   -0.122627    2.487462
C       0.898578   -0.568684    3.637273
C       2.197689    0.074099    3.854701
C       3.256398    0.602690    4.064962
H      -0.311730    1.953213    1.047601
H      -0.291930    2.078421   -0.721530
H      -1.568238    1.160780    0.094130
H       0.168516   -0.454829   -0.836168
H       2.548402   -0.366816    0.007842
H       2.119447    1.087505    1.027765
H       0.743811   -1.691542    1.223806
H       0.239696   -0.350466    4.484699
H       1.034177   -1.661418    3.603104
H       4.194613    1.066875    4.244383
