16

C       0.101804    1.504279   -0.046233
C      -0.005154    0.007752    0.222118
N      -1.341912   -0.475558   -0.121528
C      -1.633348   -1.804908   -0.116680
C      -2.834350   -2.478795   -0.086356
O      -4.073490   -1.931981    0.002626
N      -2.563764   -3.796004   -0.165080
N      -1.316858   -4.018056   -0.236392
O      -0.665624   -2.709271   -0.206175
H       1.104993    1.861116    0.201042
H      -0.098391    1.728091   -1.097764
H      -0.610508    2.069063    0.566064
H       0.712993   -0.542847   -0.391595
H       0.239973   -0.210618    1.272562
H      -2.111046    0.105497    0.180819
H      -4.707306   -2.656166    0.057279
