16

C       0.112152    1.419753   -0.543553
C       0.020667    0.026631   -0.130435
C      -0.052692   -1.121916    0.221393
C      -0.146723   -2.519128    0.636632
C      -1.450330   -3.168811    0.249265
N      -2.101567   -3.893185    1.127539
O      -3.227629   -4.372681    0.463354
C      -3.213240   -3.912564   -0.795969
C      -2.119344   -3.141601   -1.009221
H       0.827422    1.547988   -1.363421
H      -0.857690    1.796017   -0.887123
H       0.439200    2.057934    0.284646
H       0.679013   -3.090495    0.190217
H      -0.031582   -2.612075    1.722026
H      -4.044033   -4.214074   -1.415160
H      -1.827023   -2.621321   -1.905299
