13

C       0.007301    1.480479   -0.150547
C       1.320982    0.766080    0.030908
C       0.012995   -0.013795    0.039645
C       0.484898   -0.771537   -1.238424
N       0.746157    0.216895   -2.317454
C       1.750622   -0.016776   -1.246933
H      -0.320143    2.039441    0.720650
H      -0.256348    1.911954   -1.107329
H       1.992332    0.962565    0.856241
H      -0.470897   -0.506101    0.872697
H       0.283413   -1.809947   -1.466549
H       1.055265   -0.310707   -3.133292
H       2.757674   -0.334528   -1.483182
