18

C      -0.015150   -1.209370   -0.003963
C      -0.051102   -0.008167    0.015568
C      -0.051937    1.451784    0.036973
C       1.351825    2.024354    0.004471
C       2.350969    1.811552    1.177540
C       3.009256    3.104158    0.701928
C       1.784742    3.550065   -0.000246
N       2.976886    3.166463   -0.804735
C       2.281145    1.902671   -1.216671
H       0.001880   -2.270890   -0.020940
H      -0.623072    1.831478   -0.821041
H      -0.576573    1.806025    0.934390
H       1.871445    1.957020    2.149721
H       2.929851    0.882486    1.182952
H       3.776423    3.696082    1.183046
H       1.264669    4.495803   -0.081289
H       2.917960    1.014606   -1.297807
H       1.773305    2.085601   -2.167974
