19

C      -0.006858    1.490830    0.052874
C      -0.063858    0.002921   -0.023915
C      -0.086833   -0.807982   -1.080830
C      -0.029425   -2.242737   -0.579383
C       1.432023   -2.742935   -0.447192
C       2.137322   -2.043509    0.695816
C       1.498668   -1.183083    1.489943
C       0.026954   -0.915246    1.207615
O      -0.566448   -2.128449    0.743338
H       0.913925    1.824792    0.548142
H      -0.039228    1.946179   -0.940459
H      -0.841815    1.892138    0.641089
H      -0.060963   -0.524062   -2.125559
H      -0.645298   -2.948712   -1.143351
H       1.436830   -3.827309   -0.273712
H       1.978907   -2.581270   -1.386698
H       3.189844   -2.270372    0.846070
H       1.997627   -0.659895    2.299658
H      -0.522811   -0.569237    2.087220
