12

F       0.023826    0.047314    0.003467
C      -0.014001    1.369959    0.010708
N      -1.186158    1.941100    0.029809
C      -1.178290    3.286334    0.036687
C      -2.484334    4.011312    0.058347
O      -3.562439    3.479053    0.070821
C       0.014428    4.004150    0.024001
N       1.210453    3.399917    0.004452
C       1.201110    2.075255   -0.002275
H      -2.376118    5.118352    0.062941
H       0.011805    5.090517    0.029613
H       2.149237    1.546198   -0.017955
