18

C      -0.133726    1.465642    0.025295
O      -0.091925    0.079614    0.279100
C      -1.308721   -0.606527    0.022826
C      -1.554187   -0.825926   -1.477052
C      -1.210101   -1.919111    0.752316
N      -2.290761   -2.517937    1.191351
O      -1.854723   -3.707323    1.769605
C      -0.519843   -3.774414    1.661407
C      -0.035995   -2.678576    1.026966
H       0.821637    1.878602    0.357841
H      -0.260804    1.698732   -1.041446
H      -0.945344    1.954581    0.585836
H      -2.153884   -0.042203    0.445410
H      -1.653863    0.126950   -2.004285
H      -0.724049   -1.385074   -1.918584
H      -2.476855   -1.394088   -1.622283
H      -0.059257   -4.653458    2.085210
H       0.983340   -2.423028    0.797224
