19

C       0.111952    1.097081    0.616770
O      -0.153142    0.183473   -0.434987
C      -1.356233   -0.467520   -0.291128
C      -1.507192   -1.789565   -0.956936
O      -0.433183   -2.268990   -1.670074
C      -0.433782   -3.682054   -1.790066
C      -1.446051   -1.736289    0.585977
C      -0.285751   -2.213008    1.269505
C       0.672436   -2.625187    1.870516
H       1.071870    1.566109    0.391749
H      -0.663150    1.876426    0.673285
H       0.175018    0.585002    1.584597
H      -2.233559    0.182925   -0.262390
H      -2.486341   -2.030791   -1.377273
H      -0.367565   -4.166558   -0.808351
H      -1.338579   -4.038433   -2.305516
H       0.442234   -3.947743   -2.385103
H      -2.389065   -1.889628    1.104190
H       1.524398   -2.984519    2.391728
