16

C      -0.046076    1.408299    0.105978
N      -0.003364   -0.034073    0.073032
C      -1.163459   -0.877493    0.055988
C      -1.324368   -1.750620   -1.158177
C      -0.542117   -2.289641    0.023149
N       0.884066   -2.128700    0.020058
C       1.097223   -0.853873    0.000953
C       2.413977   -0.285723   -0.068210
N       3.458224    0.207150   -0.123175
H       0.964651    1.798707    0.239755
H      -0.461365    1.824467   -0.820643
H      -0.662694    1.752812    0.944778
H      -2.004803   -0.554684    0.659959
H      -2.304071   -2.189308   -1.307991
H      -0.785195   -1.493477   -2.063851
H      -0.930063   -3.143010    0.565819
