12

O       0.112064    1.336338    0.062484
C       0.076202    0.001882    0.023220
N       0.090620   -0.604938   -1.154455
C       0.053455   -1.938825   -1.146180
C       0.001869   -2.666007    0.040090
N      -0.012785   -2.059428    1.226124
C       0.023921   -0.727123    1.233239
C       0.009253   -0.046587    2.495561
N      -0.001948    0.516973    3.505537
H       0.144983    1.647734   -0.854030
H       0.065312   -2.436088   -2.111805
H      -0.028067   -3.750479    0.037110
