18

C       0.044939    1.494849   -0.121465
C       0.301844   -0.013620   -0.100229
C       0.510367   -0.535943    1.325674
N       0.731940   -1.972506    1.377562
C       1.857868   -2.672720    1.065704
C       1.472030   -3.982482    1.239931
O       2.211376   -5.094955    1.071484
N       0.179409   -4.022030    1.631999
N      -0.270488   -2.791009    1.712987
H       0.887314    2.050396    0.305429
H      -0.103470    1.851098   -1.144494
H      -0.849983    1.753681    0.454548
H      -0.542230   -0.550978   -0.546179
H       1.183524   -0.253872   -0.705965
H       1.363225   -0.038577    1.800259
H      -0.374364   -0.348716    1.938803
H       2.783017   -2.210186    0.771879
H       1.636098   -5.841152    1.283422
