17

O      -0.005172   -0.034899    0.057874
C      -0.035050    1.177007    0.005071
C      -1.302630    1.950503    0.008089
C      -1.280805    3.287489   -0.083014
C       0.044408    4.024553   -0.177483
C       1.025362    3.204427   -1.020787
C       1.227103    2.038574   -0.030700
C       1.362089    2.823719    1.301812
O       0.664865    4.060600    1.119032
H      -2.221473    1.379196    0.092843
H      -2.198734    3.867469   -0.049633
H      -0.086695    5.058638   -0.500243
H       0.618730    2.894355   -1.985242
H       1.955596    3.756804   -1.182365
H       2.088383    1.400737   -0.230736
H       0.944190    2.277928    2.155697
H       2.414849    3.044071    1.514738
