15

O      -0.554579    1.156696   -0.745240
C       0.348708    0.981645    0.029172
C       1.344677    2.051560    0.502339
O       2.262723    1.675859    1.197695
C       1.167804    3.452793    0.057045
C      -0.005475    4.203739   -0.601407
C       1.033636    5.044982   -1.419728
C       2.155623    4.274517   -0.716906
O       2.001559    4.436774    0.677155
H       0.583191   -0.005081    0.481294
H      -0.620364    3.560231   -1.226915
H      -0.631596    4.750927    0.105955
H       0.981348    4.842805   -2.491428
H       1.050037    6.123695   -1.249900
H       3.138254    3.990002   -1.077634
