12

O      -0.094163    1.297732    0.010773
C       0.029266   -0.027071    0.002452
N       1.204572   -0.592123   -0.007196
C       1.147906   -1.963254   -0.014825
N       0.101709   -2.729666   -0.013556
C      -1.148052   -2.121709   -0.003254
N      -2.288153   -2.684857   -0.000338
N      -1.126414   -0.703266    0.004823
H       0.807004    1.653107    0.007935
H       2.119905   -2.453146   -0.022890
H      -2.152509   -3.694434   -0.006916
H      -2.014638   -0.220832    0.012428
