17

C       0.008059    1.564529    0.009781
C      -0.019437    0.025004    0.003124
C      -1.372801   -0.521607    0.013093
C      -2.502699   -0.939470    0.021697
C      -3.854946   -1.483003    0.031637
C      -3.872308   -3.015469    0.022335
O      -5.232607   -3.414953    0.033304
H       1.039853    1.928704    0.001988
H      -0.506225    1.965558   -0.867801
H      -0.490072    1.957622    0.900178
H       0.518568   -0.345328   -0.879291
H       0.534608   -0.353156    0.872193
H      -4.403349   -1.138377    0.917150
H      -4.420651   -1.127485   -0.838551
H      -3.346959   -3.380717   -0.872721
H      -3.329421   -3.391695    0.902251
H      -5.264942   -4.375767    0.027578
