17

O       0.100180    1.398772   -0.270616
C       0.002842    0.051397    0.004605
C      -0.398296   -0.623127    1.302894
O      -1.192137    0.063286    2.262233
C      -2.561781   -0.008876    1.922843
C      -2.971506    1.080692    0.983497
O      -2.168462    2.222709    0.880347
C      -2.623734   -0.306272    0.435606
C      -1.246399   -0.810504    0.047247
H      -0.764294    1.820110   -0.132735
H       0.838036   -0.473527   -0.457406
H       0.229208   -1.389623    1.749726
H      -3.198858   -0.418046    2.701200
H      -4.028723    1.325004    0.921475
H      -1.547626    2.181909    1.624099
H      -3.463215   -0.847517    0.014750
H      -1.250209   -1.738627   -0.514115
