15

N      -0.010619    1.398990   -0.219639
C      -0.083136    0.055105   -0.113858
N      -1.140916   -0.673831   -0.152206
C      -0.752699   -2.083136    0.059787
C       0.769179   -2.158304    0.257089
C       1.202599   -0.714000    0.085751
O       2.305846   -0.228744    0.076422
C      -1.560845   -2.606817    1.243819
O      -1.099644   -3.224976    2.167592
H       0.906996    1.797211   -0.338751
H      -0.813689    1.925972   -0.517018
H      -1.083864   -2.665746   -0.813701
H       1.019278   -2.521207    1.259397
H       1.282656   -2.800962   -0.462203
H      -2.639676   -2.351041    1.186853
