16

C       0.189542    1.540685    0.066197
C       0.059539    0.050557   -0.002860
C      -0.028907   -0.750965   -1.133446
N      -0.097938   -2.042040   -0.683100
N      -0.091471   -2.132500    0.652575
C       0.025045   -0.872087    1.067048
C      -0.032630   -0.398661   -2.567292
N       0.291540   -1.442324   -3.418737
O      -0.337611    0.704130   -2.980688
H       1.191449    1.839690    0.395916
H      -0.001321    1.985634   -0.910483
H      -0.522861    1.960012    0.784383
H      -0.320955   -2.859732   -1.226597
H       0.074245   -0.661138    2.125860
H       0.956998   -2.130010   -3.099117
H       0.398773   -1.163005   -4.383715
