20

C      -0.007525    1.528130   -0.086846
C       1.308761    0.774621   -0.045976
C       0.025163    0.018346    0.024219
C      -0.374455   -0.717440    1.286996
N      -1.739334   -1.255335    1.279476
C      -2.850257   -0.352167    1.000969
C      -2.413004   -1.345803   -0.022834
C      -1.699927   -0.859091   -1.287032
O      -0.293091   -0.724020   -1.122677
H      -0.295631    2.113400    0.780134
H      -0.303630    1.950325   -1.040751
H       1.863783    0.695661   -0.973708
H       1.919161    0.838103    0.848871
H       0.298507   -1.575541    1.406747
H      -0.256571   -0.078244    2.168499
H      -3.744372   -0.523391    1.595065
H      -2.637675    0.693166    0.786256
H      -2.997234   -2.254943   -0.147474
H      -1.833165   -1.585991   -2.092098
H      -2.126073    0.098457   -1.623700
