15

N      -0.159271    1.401581   -0.003449
C       0.015559    0.004600   -0.075287
C       0.939276   -0.907189   -0.906841
C       0.065942   -2.060174   -0.356103
O       0.411489   -2.098795    1.062933
C      -0.302825   -0.873326    1.178504
C      -0.639646   -0.336954    2.453229
N      -0.904672    0.102109    3.490078
C      -1.094992   -1.035212   -0.086350
H       0.630778    1.867659    0.429559
H      -0.320352    1.815037   -0.915360
H       0.774397   -0.747454   -1.976109
H       2.007611   -0.952710   -0.676837
H      -0.001084   -3.042736   -0.813866
H      -2.155233   -0.992633   -0.290202
