13

N      -0.063123   -1.110470    0.434505
C      -0.024362    0.013262    0.171131
C       0.021041    1.454711   -0.162628
O      -0.751971    2.215537    0.747350
C       0.099189    2.992601    1.593140
C       1.458512    2.893349    0.974481
C       1.434357    2.022920   -0.036337
C       2.500148    1.636661   -0.886045
N       3.348854    1.312175   -1.603583
H      -0.386786    1.580213   -1.173654
H      -0.281382    4.021283    1.622648
H       0.091649    2.602636    2.622527
H       2.322228    3.445473    1.319398
