18

O      -0.032884    1.013315    0.857891
C      -0.070370    0.126530   -0.255229
C      -1.370022   -0.528685   -0.318205
C      -2.440465   -1.073220   -0.400401
C      -3.725948   -1.755614   -0.449503
C      -3.849541   -2.843620    0.642067
N      -5.146309   -3.500280    0.634800
C      -5.453235   -4.486665   -0.248305
O      -4.693162   -4.921519   -1.088150
H       0.837165    1.425316    0.865163
H       0.105643    0.666590   -1.200012
H       0.716800   -0.641306   -0.178003
H      -4.541902   -1.030824   -0.334079
H      -3.864275   -2.236064   -1.424578
H      -3.081767   -3.602935    0.476402
H      -3.687113   -2.404161    1.629169
H      -5.866190   -3.175878    1.259813
H      -6.486538   -4.863091   -0.109976
