18

C       1.211329    1.030362   -0.684736
C       0.145952    0.150886   -0.080714
N       0.565100   -1.140527    0.478945
C       0.018192   -0.118728    1.388891
C       0.935247    0.423948    2.415529
N       0.469191    1.249615    3.354351
N       1.546293    1.540032    4.109045
C       2.675985    0.923312    3.686042
C       2.320367    0.181483    2.581169
H       2.114555    1.033487   -0.071299
H       1.479132    0.678303   -1.686821
H       0.852436    2.061544   -0.772210
H      -0.802869    0.163333   -0.617359
H      -0.126443   -1.861868    0.297078
H      -1.000588   -0.244031    1.749190
H       1.435318    2.152047    4.899047
H       3.617759    1.052586    4.195746
H       2.943530   -0.461244    1.983298
