15

N      -0.038790    1.371802    0.143874
C       0.021443   -0.004597    0.050705
N      -1.150202   -0.643641    0.040951
C      -1.139902   -1.987937    0.009144
C       0.034799   -2.744039   -0.024604
C       1.249203   -2.060629   -0.022464
C       1.258249   -0.678633    0.017841
C      -2.411278   -2.646437    0.004856
C      -3.464278   -3.229120    0.000021
H       0.740466    1.891569   -0.227057
H      -0.944831    1.755567   -0.080096
H      -0.013621   -3.824543   -0.055033
H       2.184649   -2.609997   -0.050492
H       2.187944   -0.120231    0.030016
H      -4.400097   -3.730873   -0.002438
