17

O      -0.078442    1.288156    0.105284
C       0.068092   -0.080416    0.065323
C      -0.130096   -0.944278   -1.186235
C      -1.041103   -1.093460    0.027718
C       0.000111   -2.115835    0.552497
O      -0.346106   -3.169710    1.363699
C       0.767946   -2.154762   -0.842317
C       2.039952   -1.588418   -0.161518
C       1.058258   -0.968541    0.863726
H       0.622241    1.686473   -0.423951
H      -0.379372   -0.522036   -2.151067
H      -2.113405   -1.002928    0.129040
H       0.455675   -3.631428    1.635219
H       0.781428   -3.011318   -1.516485
H       2.655106   -2.379813    0.280664
H       2.680157   -0.913773   -0.739646
H       1.335874   -0.657037    1.870355
