19

C      -0.080252    1.460790   -0.060192
C      -0.035989    0.005880   -0.039518
C       0.008249   -1.197675   -0.027755
C       0.056731   -2.640111   -0.010454
C      -0.423105   -3.349861    1.264593
C      -1.280981   -3.393339    0.043449
C       1.136326   -3.252580   -0.747086
C       2.035677   -3.767842   -1.360529
C       3.126382   -4.380410   -2.105024
H       0.743884    1.869799   -0.655259
H      -1.015797    1.828444   -0.496704
H       0.002464    1.879975    0.948966
H       0.120322   -4.243208    1.547625
H      -0.722150   -2.708568    2.084839
H      -2.175007   -2.782198    0.016765
H      -1.332544   -4.316842   -0.520442
H       2.752472   -5.046413   -2.890890
H       3.748384   -3.618316   -2.587641
H       3.777594   -4.971411   -1.451111
