17

O      -0.006561    1.473288   -0.097064
C       0.052178    0.069135   -0.016266
C       0.028331   -0.595646    1.379927
C      -1.504110   -0.295814    1.557311
C      -1.794381   -1.768119    1.915033
O      -3.065037   -2.324524    1.676791
C      -0.710949   -1.847143    0.822952
O      -0.060677   -2.946327    0.303117
C      -1.318480   -0.610520    0.028390
H       0.890167    1.817286   -0.039362
H       0.773956   -0.350666   -0.729180
H       0.775530   -0.599494    2.174359
H      -1.929871    0.612671    1.971953
H      -1.494135   -2.099553    2.914254
H      -3.428797   -1.917303    0.882708
H      -0.727953   -3.599869    0.064438
H      -2.090540   -0.620097   -0.742763
