15

N      -0.056958    1.296655   -0.044491
C      -0.020568   -0.079843   -0.036313
N      -1.109487   -0.826071    0.120932
N      -0.551962   -2.090473    0.059087
C      -1.055070   -3.405326   -0.254089
C       0.306688   -4.164941   -0.250069
O       1.345419   -3.162725   -0.452920
C       0.755340   -1.985174   -0.203821
N       1.174580   -0.747753   -0.243583
H       0.817701    1.721370    0.224594
H      -0.857403    1.688474    0.428916
H      -1.740746   -3.793390    0.503140
H      -1.553799   -3.427948   -1.231368
H       0.486542   -4.644536    0.716522
H       0.395639   -4.902993   -1.047171
