21

C      -0.083037    1.548815    0.098291
C       1.450004    1.275016    0.068044
C       1.174342    0.124262    1.085869
C       0.052621    0.000774    0.009257
C       1.163307    0.243945   -1.063898
C       0.792334    0.683623   -2.498712
C       1.860587    0.016410   -3.378950
C       2.202922   -1.219405   -2.546911
O       2.146700   -0.775884   -1.200846
H      -0.470364    1.930960    1.045325
H      -0.528571    2.074104   -0.748744
H       2.256645    2.010032    0.098400
H       1.905731   -0.680322    1.131375
H       0.844754    0.439541    2.079455
H      -0.755122   -0.733018   -0.030223
H      -0.205114    0.312333   -2.759024
H       0.775701    1.769239   -2.611952
H       1.507608   -0.222338   -4.385196
H       2.742566    0.658698   -3.468940
H       1.473934   -2.027208   -2.725106
H       3.204870   -1.618392   -2.729115
