21

C       0.272768    0.967517    0.110841
O      -0.039270   -0.393436    0.362832
C      -1.371055   -0.705046    0.170397
C      -1.946675   -0.925421   -1.203889
C      -1.919461   -2.071932   -0.211207
C      -1.163987   -3.346763   -0.444460
O      -0.653351   -3.895834    0.764482
C      -3.063222   -1.894394    0.799800
C      -2.478232   -0.499166    1.210852
H       1.345884    1.086152    0.276372
H       0.032012    1.247305   -0.923977
H      -0.268847    1.639825    0.790607
H      -2.890564   -0.478364   -1.509586
H      -1.200734   -0.993893   -1.990365
H      -1.821683   -4.117327   -0.863722
H      -0.359337   -3.171920   -1.175143
H      -0.054977   -3.237559    1.135175
H      -4.074036   -1.892776    0.379828
H      -3.010210   -2.622347    1.611021
H      -2.087569   -0.504252    2.231219
H      -3.124825    0.374368    1.079659
