20

C       0.060434    1.249000   -0.466191
O      -0.115303    0.207206    0.474029
C      -1.330310   -0.455449    0.330790
C      -1.463980   -1.576029   -0.711943
C      -1.378100   -1.868417    0.747996
C      -0.495305   -2.757779    1.621605
C      -1.415544   -2.264645    2.762030
N      -2.432492   -2.525091    1.626452
C      -1.606115   -3.808079    1.381835
H       1.035963    1.699471   -0.268983
H       0.038231    0.871784   -1.498607
H      -0.716849    2.021077   -0.363144
H      -2.215730    0.162137    0.496608
H      -2.417917   -1.687047   -1.217966
H      -0.588204   -1.789421   -1.317454
H       0.592066   -2.873603    1.603694
H      -1.559453   -2.922599    3.623408
H      -1.350963   -1.215315    3.056436
H      -1.723101   -4.213755    0.374509
H      -1.763176   -4.571744    2.148446
