15

N      -0.023832    1.360093    0.009931
C       1.289358    1.764894   -0.000473
N       2.141799    0.777047   -0.014283
C       1.355690   -0.367744   -0.013137
C      -0.016025   -0.021658    0.002075
C      -1.030061   -0.976752    0.006494
C      -0.633171   -2.307991   -0.004845
C       0.726168   -2.670868   -0.020033
C       1.730898   -1.713745   -0.024352
H      -0.832287    1.958114    0.021158
H       1.549379    2.814490    0.002928
H      -2.078937   -0.700636    0.018190
H      -1.388894   -3.086204   -0.001924
H       0.989258   -3.723169   -0.028508
H       2.779837   -1.986970   -0.036035
