17

C       0.021268    1.451744    0.094185
O       1.425390    1.890308    0.046274
C       1.965170    1.680400   -1.215799
C       2.871866    0.494929   -1.753599
C       3.071184   -0.840346   -1.117327
C       1.901225   -1.457442   -0.861516
C       0.840390   -0.455469   -1.082892
C       0.003886   -0.038409   -0.114788
C       1.390584    0.581904   -2.035674
H      -0.335128    1.725430    1.088462
H      -0.543444    2.024808   -0.650859
H       2.210877    2.613519   -1.724212
H       3.604068    0.841900   -2.475812
H       4.050826   -1.234750   -0.875582
H       1.773061   -2.385215   -0.317815
H      -0.268388   -0.684098    0.714749
H       0.944555    0.727872   -3.014558
