25

C      -0.198747    1.579051   -0.012299
C       0.029888    0.062884   -0.013615
C       0.858831   -0.447411   -1.170523
C       1.652189   -1.464009   -0.828779
C       2.565372   -2.250551   -1.714661
C       1.480364   -1.794847    0.638738
C       0.763306   -0.547299    1.236837
C       1.831607    0.413410    1.789046
C      -0.219425   -0.915745    2.354411
H       0.742343    2.136021   -0.038916
H      -0.780496    1.873788   -0.892340
H      -0.759529    1.901431    0.871787
H      -0.966527   -0.405950   -0.070689
H       0.768594   -0.040932   -2.173859
H       2.548275   -1.881831   -2.744170
H       3.601510   -2.210179   -1.354225
H       2.286215   -3.312374   -1.730068
H       0.866644   -2.701435    0.752469
H       2.431948   -2.007037    1.143445
H       2.553002    0.693934    1.014906
H       1.389426    1.331073    2.188627
H       2.384279   -0.066803    2.603932
H       0.299276   -1.376177    3.203039
H      -0.742472   -0.029717    2.732721
H      -0.976028   -1.624676    2.000973
