16

C      -0.263558    1.661919   -0.216338
C      -0.037556    0.195741   -0.153960
C      -0.829057   -0.871911    0.125947
C      -0.015513   -2.050436   -0.007401
C       1.214272   -1.589134   -0.350103
O       2.393895   -2.179151   -0.635998
C       2.815072   -3.174947    0.200856
N       3.777229   -3.901578   -0.152376
O       1.234600   -0.242486   -0.442625
H      -0.063081    2.058706   -1.218133
H      -1.302782    1.883059    0.036921
H       0.382831    2.201954    0.484900
H      -1.875538   -0.834075    0.385893
H      -0.311304   -3.080697    0.102717
H       2.233917   -3.212529    1.128888
H       3.995874   -4.571985    0.581754
