15

N       0.137372    1.427410    0.040572
C       0.037672    0.013114    0.049041
C      -0.478231   -0.698818    1.266471
O      -1.205633    0.093765    2.172880
C      -2.543505    0.090527    1.691561
O      -2.453710    0.052362    0.277170
C      -1.326987   -0.747016    0.006930
C      -1.528515   -1.918555   -0.788048
N      -1.650285   -2.859426   -1.451525
H      -0.178920    1.825188   -0.836750
H      -0.413862    1.824896    0.792727
H       0.826739   -0.511854   -0.484762
H       0.016623   -1.565847    1.689781
H      -3.082802   -0.791476    2.069873
H      -3.036988    1.016550    1.993761
