20

C       0.041766    1.568101   -0.167436
C      -0.026896    0.067932    0.150877
C      -1.435454   -0.508162    0.068800
O      -2.276718    0.080803    1.055220
C      -2.068624   -0.794609   -1.342824
N      -1.049087   -1.910853   -1.447619
C      -1.622979   -2.048609   -0.050038
C      -3.052751   -1.817637   -0.665635
O      -4.177943   -1.466175    0.061247
H       1.074945    1.923463   -0.120242
H      -0.336868    1.781827   -1.172599
H      -0.527617    2.179668    0.544567
H       0.607361   -0.484858   -0.543066
H       0.351587   -0.110134    1.164933
H      -2.203152    1.037747    0.980748
H      -2.245748   -0.100644   -2.167457
H      -1.433410   -2.656252   -2.035563
H      -1.276158   -2.818290    0.642313
H      -3.346362   -2.623779   -1.346905
H      -3.894373   -0.777898    0.680464
