13

O      -0.029454    1.294483    0.199087
C       0.021060   -0.049331    0.055185
C      -0.167379   -0.775090   -1.079482
O      -0.039139   -2.109963   -0.801645
C       0.242276   -2.240352    0.514606
C       0.284010   -1.007122    1.088293
O       0.554732   -0.636188    2.384843
C      -0.208706   -1.188635    3.378758
O      -0.002331   -0.961929    4.526785
H       0.202206    1.506460    1.111156
H      -0.389957   -0.513251   -2.098258
H       0.398935   -3.238429    0.886483
H      -0.999584   -1.841937    2.970202
