14

O       0.417080    0.878515   -0.730131
C      -0.024380    0.111440    0.358217
C      -1.444134   -0.320700    0.178320
N      -2.141754   -0.184583   -0.914200
C      -3.360082   -0.751957   -0.609445
C      -3.338608   -1.212587    0.675150
O      -2.090052   -0.929747    1.182737
C      -4.330899   -1.882638    1.500061
O      -4.164183   -2.237527    2.643655
H      -0.196787    0.722859   -1.459925
H       0.596128   -0.789479    0.502784
H       0.060645    0.699582    1.281793
H      -4.168171   -0.792886   -1.323546
H      -5.289702   -2.043974    0.962197
