19

C      -0.030496    1.374932   -0.093574
C      -0.033772   -0.112792   -0.022450
O       0.926552   -0.862082   -0.767239
C       0.151694   -2.062589   -0.461873
C       0.266161   -3.146686   -1.485907
C       0.414567   -2.253369    1.059102
C      -0.374936   -0.962077    1.249423
C      -1.101230   -1.137469   -0.081216
O      -2.409942   -1.058472   -0.476383
H       0.896375    1.785710    0.320258
H      -0.125312    1.713721   -1.129928
H      -0.870661    1.780306    0.477557
H       1.308849   -3.470505   -1.578167
H      -0.337367   -4.013731   -1.200389
H      -0.071143   -2.793091   -2.464280
H      -0.115995   -3.121199    1.462495
H       1.468014   -2.276639    1.354788
H      -0.728698   -0.495621    2.160675
H      -2.932361   -1.671374    0.054079
