18

C      -0.087074    1.245741   -1.175923
C      -0.024197   -0.037017   -0.393086
O       0.228553   -0.079549    0.793813
C      -0.270438   -1.372775   -1.115891
O       0.036894   -2.434844   -0.257948
C      -1.743457   -1.537581   -1.556725
O      -2.121527   -0.631840   -2.585738
C      -2.003750   -1.056620   -3.863223
N      -2.134867   -0.236373   -4.810913
H       0.719674    1.256462   -1.918637
H      -1.022702    1.309840   -1.738174
H       0.026622    2.097020   -0.503990
H       0.363890   -1.405437   -2.016508
H       0.223482   -2.012557    0.599126
H      -1.875546   -2.577459   -1.877387
H      -2.409508   -1.355157   -0.709213
H      -1.813827   -2.136061   -3.944576
H      -2.054556   -0.717875   -5.703935
