19

C       1.081547   -0.636889    1.577998
C       0.228269   -0.299211    0.348085
C       0.924622   -0.590040   -0.954931
O       0.095569   -0.812897   -2.118140
C       0.959322   -1.871185   -1.680376
C       2.280955   -1.911969   -2.431971
N       2.931407   -0.612952   -2.210004
C       2.218766    0.065612   -1.390010
N       2.599614    1.283183   -0.873847
H       1.339426   -1.700545    1.596534
H       2.013540   -0.064630    1.579662
H       0.539245   -0.405660    2.499246
H      -0.707785   -0.866855    0.357305
H      -0.061880    0.760274    0.376839
H       0.458129   -2.768540   -1.326376
H       2.918162   -2.724522   -2.058438
H       2.136064   -2.080418   -3.505552
H       3.389778    1.697365   -1.349470
H       1.856755    1.938171   -0.680040
