14

C       0.106892    1.466978   -0.277552
C       0.073326   -0.027210    0.075639
O       0.701530   -0.251456    1.307937
C      -1.354496   -0.580771    0.114271
C      -2.216088   -0.457217   -1.120997
O      -1.752406   -1.106198    1.133220
H       1.140758    1.817265   -0.231458
H      -0.276826    1.656353   -1.284436
H      -0.479936    2.043875    0.443776
H       0.597813   -0.583049   -0.723285
H       0.042063   -0.720553    1.845467
H      -2.592223    0.569088   -1.202796
H      -1.643819   -0.664570   -2.030104
H      -3.066651   -1.135860   -1.045866
