19

O       0.111926    1.356177   -0.189050
C      -0.006095   -0.022743   -0.018069
C      -0.408359   -0.634535    1.299158
C      -1.349403   -0.704489    0.103679
C      -2.615014    0.093665    0.086053
O      -2.498522    1.265104    0.875293
C      -3.446449    0.152821   -1.179002
C      -3.945724   -0.602380    0.044085
O      -3.960821   -1.996868    0.048483
H      -0.657761    1.755992    0.238387
H       0.757149   -0.531941   -0.598585
H       0.066329   -1.550404    1.634814
H      -0.677263    0.054792    2.091808
H      -1.465559   -1.672383   -0.369820
H      -3.199193    1.876993    0.630896
H      -3.939759    1.083516   -1.447053
H      -3.098174   -0.432011   -2.023983
H      -4.746203   -0.128116    0.615849
H      -4.637659   -2.290398   -0.570856
