15

C       0.049096    1.361313   -0.199417
C       1.461272    1.901540    0.193549
C       2.114503    0.627874    0.646111
C       3.296656    0.054020    1.044196
N       3.009808   -1.243007    1.402826
C       1.657738   -1.522305    1.235273
C       1.110837   -0.355411    0.772539
O      -0.139586    0.074171    0.440185
H      -0.770372    2.010439    0.117110
H      -0.016273    1.215001   -1.284985
H       1.942578    2.389297   -0.659359
H       1.394520    2.643722    0.998820
H       4.303169    0.434667    1.108945
H       3.693844   -1.919145    1.690326
H       1.247031   -2.490778    1.460655
