21

C       0.252892    1.358369   -0.138441
C       0.465900   -0.144511   -0.119471
O       0.302012   -0.638622   -1.449890
C       0.481955   -2.022939   -1.538079
C       0.739609   -2.560721   -2.922360
C       1.870493   -2.478419   -1.918721
O       2.836772   -1.474660   -2.088258
C       2.507599   -3.715407   -1.345301
O       3.474643   -4.271599   -2.218890
H       0.990550    1.848395   -0.780898
H      -0.744347    1.600056   -0.516420
H       0.351247    1.767101    0.871437
H       1.468625   -0.399146    0.252795
H      -0.266108   -0.632332    0.542487
H      -0.118815   -2.604955   -0.838370
H       0.330777   -3.531343   -3.180757
H       0.745191   -1.835077   -3.728985
H       2.355438   -0.639291   -2.156628
H       2.952169   -3.464584   -0.368560
H       1.748715   -4.487275   -1.181875
H       4.068781   -3.551233   -2.458009
