19

C      -0.013057    1.595103    0.209016
C       0.105145    0.088298    0.101418
C       0.377793   -0.638047   -1.179027
C       0.572073    0.064197   -2.513573
C       1.446465   -0.744589   -3.453069
O       2.396553   -0.306595   -4.046046
C       1.445599   -0.635970   -0.076546
C       2.720813    0.106722   -0.211114
O       3.758104   -0.266516    0.282288
H       0.634088    2.130270   -0.488663
H      -1.043313    1.907476    0.007865
H       0.244850    1.929454    1.218791
H      -0.560602   -0.435547    0.782615
H      -0.119173   -1.599992   -1.280464
H      -0.412212    0.172693   -2.993157
H       1.004368    1.061898   -2.425222
H       1.140692   -1.811290   -3.563838
H       1.572001   -1.561193    0.475975
H       2.683701    1.048881   -0.798567
