18

C      -0.247823    1.542688   -0.098929
C      -0.011008    0.035862    0.060162
C       0.794147   -0.552519   -1.064868
C       0.198057   -0.972595   -2.401999
C       0.872851   -1.981803   -1.487265
O       2.229037   -2.278610   -1.712321
C       2.896542   -1.031938   -1.797640
O       2.127416   -0.075920   -1.095421
H       0.703754    2.079316   -0.143081
H      -0.798278    1.758669   -1.020407
H      -0.825349    1.938589    0.741634
H       0.513281   -0.163386    1.002539
H      -0.970074   -0.492408    0.110552
H      -0.884953   -1.019440   -2.456479
H       0.681854   -0.683655   -3.328340
H       0.336892   -2.805694   -1.032837
H       3.885183   -1.116790   -1.334806
H       3.005451   -0.732790   -2.853369
