21

C       0.107119    1.376872    0.135298
O      -0.151210    0.011272   -0.114243
C       0.593313   -0.534152   -1.168647
C       2.156082   -0.546261   -1.115448
C       2.041841   -1.884738   -1.905275
C       0.661137   -2.081191   -1.209003
C       1.860259   -1.605996   -3.408520
C       0.778580   -0.570068   -3.614796
C       0.170401   -0.051909   -2.548463
H       1.159472    1.548959    0.404217
H      -0.133613    2.014231   -0.728113
H      -0.525018    1.673922    0.975386
H       2.696093    0.284359   -1.576113
H       2.513525   -0.716833   -0.096090
H       2.807753   -2.641110   -1.725462
H       0.777325   -2.488916   -0.201733
H      -0.130912   -2.608437   -1.745211
H       2.808128   -1.266890   -3.850339
H       1.599634   -2.533508   -3.937916
H       0.509463   -0.284670   -4.627767
H      -0.636946    0.669785   -2.620791
