18

C      -0.050853    1.529708    0.056143
C       1.470117    1.282919    0.074006
C       1.179404    0.067978    1.039919
C       0.122903   -0.019580   -0.103192
C      -0.916045   -0.864055   -0.820723
C      -0.646433   -0.382757   -2.255618
C       0.503875    0.295379   -2.400061
C       1.271992    0.257802   -1.101651
H      -0.501204    1.865293    0.994727
H      -0.457749    2.069818   -0.799714
H       2.263214    2.022702    0.197830
H       1.932636   -0.724129    1.075840
H       0.822630    0.329036    2.040058
H      -0.745441   -1.946091   -0.732224
H      -1.945253   -0.670107   -0.498603
H      -1.339426   -0.596388   -3.063709
H       0.871947    0.680719   -3.344838
H       2.068823   -0.497832   -1.141175
