15

C      -0.056574    1.449118    0.032240
N      -0.021828    0.002656    0.011237
C      -1.141749   -0.801048    0.039673
N      -2.325994   -0.342540    0.093605
C      -0.626760   -2.240316   -0.013313
N       0.808286   -2.060190    0.079567
C       1.171108   -0.733268   -0.018974
O       2.286830   -0.277142   -0.100392
H       0.974891    1.799323   -0.016736
H      -0.625638    1.827616   -0.821276
H      -0.535328    1.807601    0.948101
H      -3.008345   -1.099228    0.104233
H      -1.031452   -2.827627    0.818635
H      -0.938588   -2.717259   -0.951955
H       1.472671   -2.760597   -0.202779
