23

O       1.023118    0.350763   -0.680108
C       0.120800   -0.368002    0.122819
C       0.009706   -0.056533    1.638111
C      -1.530546   -0.307629    1.530515
C      -1.404849   -0.120882   -0.006685
C      -1.947855   -1.708831    2.007836
C      -2.141836   -1.533176    3.524300
C      -2.701009   -0.092419    3.693245
C      -2.472138    0.608826    2.325662
H       0.840321    1.289051   -0.562648
H       0.362656   -1.421196   -0.045422
H       0.591666   -0.668169    2.333346
H       0.230133    0.999863    1.833104
H      -1.603704    0.917772   -0.298627
H      -1.984756   -0.782896   -0.656215
H      -2.898681   -1.983111    1.531661
H      -1.223037   -2.489698    1.756185
H      -2.795806   -2.295443    3.956506
H      -1.175224   -1.622568    4.031950
H      -3.763800   -0.104035    3.951290
H      -2.190740    0.432522    4.505614
H      -2.073379    1.623021    2.427771
H      -3.421805    0.697423    1.783720
