20

C      -0.220454    1.733118    0.178435
C       0.065226    0.240987    0.062958
C      -1.232244   -0.557188   -0.210100
C      -1.870166   -0.229153   -1.480253
C      -2.375021    0.048726   -2.535800
C       1.219049   -0.184953   -0.900548
C       1.762165   -1.140636    0.195480
C       0.868456   -0.410966    1.234431
H       0.701441    2.292684    0.366971
H      -0.672649    2.120831   -0.740198
H      -0.911715    1.939945    1.004714
H      -1.009475   -1.631833   -0.190856
H      -1.938183   -0.378624    0.612358
H      -2.831302    0.288427   -3.463987
H       0.920655   -0.621819   -1.856764
H       1.902455    0.645383   -1.100198
H       1.460096   -2.179212    0.036153
H       2.839255   -1.127341    0.375644
H       1.424612    0.338393    1.805017
H       0.302612   -1.027748    1.939438
