21

C      -0.011851    1.565416   -0.005779
C      -0.001383    0.035186   -0.007516
C      -1.412802   -0.570214    0.038008
C      -1.406533   -2.074070    0.008171
C      -0.762053   -3.085753    1.032561
C      -1.400897   -4.032011   -0.037801
C      -2.630566   -3.063676   -0.002746
C      -0.828401   -3.031900   -1.051629
O      -0.248738   -2.998655   -2.094435
H       1.004464    1.969848   -0.036609
H      -0.552815    1.958371   -0.873720
H      -0.500019    1.958402    0.893278
H       0.513213   -0.334042   -0.902293
H       0.575386   -0.328873    0.852322
H      -1.940373   -0.219624    0.935467
H      -1.992976   -0.205360   -0.820266
H       0.325196   -3.091002    1.130277
H      -1.258966   -3.109578    2.006066
H      -1.405645   -5.118973   -0.050069
H      -3.194003   -3.087303    0.933806
H      -3.289398   -3.044723   -0.873501
