16

N      -0.152656    1.256184    0.156128
C      -0.030679   -0.078191   -0.069140
O       1.023042   -0.660269   -0.255002
C      -1.330543   -0.794407   -0.072435
O      -2.566815   -0.118331    0.173846
C      -3.150758   -1.445163    0.352492
C      -3.145414   -2.033956   -1.083400
C      -1.624707   -2.046770   -0.929403
C      -1.727892   -2.079328    0.583770
H       0.679316    1.819642    0.205296
H      -1.050610    1.659350    0.364549
H      -4.017618   -1.452002    1.008896
H      -3.549489   -3.048945   -1.105107
H      -3.601892   -1.416009   -1.862229
H      -0.857636   -2.481030   -1.555162
H      -1.258834   -2.673777    1.354274
