18

C      -0.208673    1.589714    0.051336
C      -0.051680    0.077989    0.033874
O      -1.319893   -0.469865    0.320722
C       0.670646   -0.513698   -1.265547
N       1.710156   -1.004722   -0.349681
C       2.935772   -1.543136   -0.095826
C       3.122571   -1.407385    1.274793
C       1.992897   -0.744038    1.847108
C       1.140709   -0.514023    0.786657
H       0.725854    2.084168   -0.224263
H      -0.993905    1.892802   -0.648287
H      -0.497971    1.920359    1.052429
H      -1.191465   -1.389347    0.577804
H       0.108026   -1.302867   -1.772422
H       1.026579    0.222593   -1.992472
H       3.556466   -1.989203   -0.855619
H       3.986709   -1.761965    1.817648
H       1.854989   -0.488405    2.885684
