18

N       0.051842   -1.389172    0.445965
C       0.011602   -0.238677    0.357556
C      -0.057889    1.225253    0.245912
C       1.249646    1.849767    0.061738
C       2.328757    2.363050   -0.084372
C       3.614680    2.998543   -0.282276
C       4.199172    3.109276   -1.729265
C       4.723947    4.523029   -1.365672
C       3.719431    4.556801   -0.184111
H      -0.726822    1.470109   -0.589520
H      -0.547049    1.611391    1.149859
H       4.358206    2.539669    0.378609
H       4.920755    2.347601   -2.030864
H       3.395760    3.149679   -2.468808
H       5.759908    4.493789   -1.016245
H       4.635678    5.303344   -2.123789
H       2.773811    5.026284   -0.466128
H       4.051110    4.971712    0.769804
