21

C       0.323199    1.630217    0.108202
C       0.045445    0.124640    0.051156
C       0.513910   -0.490243   -1.256369
O       1.948565   -0.373776   -1.436608
C       2.090633   -1.796965   -1.602405
C       0.587879   -2.029514   -1.388468
C       0.034337   -3.017641   -0.344908
O      -0.752358   -3.702889   -1.339794
C      -0.281605   -2.821989   -2.378686
H       1.390355    1.825163   -0.028627
H      -0.220182    2.162456   -0.680239
H       0.017084    2.051846    1.069889
H       0.551340   -0.379318    0.884061
H      -1.029445   -0.068970    0.164974
H      -0.014837   -0.020455   -2.100966
H       2.465158   -2.062876   -2.600374
H       2.753396   -2.237671   -0.845902
H       0.783565   -3.676185    0.114885
H      -0.590303   -2.584955    0.446135
H      -1.100303   -2.256013   -2.843737
H       0.268114   -3.361234   -3.161954
