16

C       0.065974    1.455297   -0.006179
N      -0.142229    0.020122    0.060414
C       0.553033   -0.686002    1.035447
C       1.221187   -0.195924    2.127325
O       1.717066   -1.217846    2.884530
C       1.375188   -2.380304    2.260536
C       0.659168   -2.110322    1.125605
C       1.782876   -3.592067    2.845612
C       2.126378   -4.637452    3.336181
H       1.124679    1.741377   -0.117938
H      -0.498674    1.863193   -0.847359
H      -0.313386    1.923948    0.908848
H      -0.117338   -0.430860   -0.842572
H       1.411955    0.795951    2.497314
H       0.253043   -2.840594    0.443407
H       2.428895   -5.557837    3.770368
