18

O       0.091997    1.400193   -0.169674
C       0.078093    0.017533    0.110991
C      -1.352363   -0.531653    0.051689
O      -1.952370   -0.143070   -1.181731
C      -1.405330   -2.045700    0.203711
C      -2.779136   -2.743516    0.111033
C      -2.147207   -3.524709   -1.055613
O      -0.960752   -2.691557   -1.024032
H      -0.520603    1.512163   -0.908651
H       0.708553   -0.549185   -0.595681
H       0.497118   -0.121048    1.114259
H      -1.949329   -0.063541    0.844183
H      -1.604144   -0.771415   -1.831874
H      -0.795056   -2.368466    1.058301
H      -3.092549   -3.322964    0.979716
H      -3.576896   -2.065397   -0.194866
H      -1.901789   -4.569922   -0.832018
H      -2.654636   -3.474623   -2.024521
