17

O       0.203465    0.057979    0.478886
C       0.176273    1.221846    0.190962
C       1.421391    2.087570   -0.108732
C       1.671283    3.039570    1.119744
C       2.769987    2.343522    1.956817
C       3.404709    1.392134    0.972928
C       2.690819    1.254616   -0.139280
C       1.145164    2.821825   -1.339181
C       0.873165    3.407750   -2.353680
H      -0.776121    1.794872    0.134027
H       2.030280    3.997674    0.738006
H       0.752620    3.234619    1.680820
H       3.480662    3.064476    2.375192
H       2.349823    1.791928    2.808343
H       4.322355    0.856262    1.188248
H       2.914599    0.601939   -0.972906
H       0.654776    3.930009   -3.252328
