16

O       0.069600    1.425896   -0.016974
C       0.079440    0.021834   -0.105607
C      -1.330025   -0.554568    0.044556
C      -1.414515   -2.106144    0.021700
N      -2.379594   -2.356750    1.103456
C      -2.415589   -1.194564    1.854312
N      -1.889787   -0.142254    1.350906
C      -3.072824   -1.211242    3.134358
N      -3.594335   -1.265196    4.163906
H      -0.429112    1.641871    0.781226
H       0.488545   -0.237844   -1.088652
H       0.730425   -0.435814    0.658960
H      -1.963536   -0.114621   -0.736306
H      -1.777341   -2.500431   -0.929581
H      -0.440357   -2.565911    0.242941
H      -2.375846   -3.245120    1.583283
