13

C      -0.020002    1.404356    0.016805
O       0.016092   -0.027666   -0.027405
C       0.617364   -0.589418   -1.079605
C       0.661595   -1.999093   -1.138666
N       1.242485   -2.595781   -2.154662
C       1.763075   -1.769269   -3.083666
N       1.742331   -0.447131   -3.064590
N       1.150207    0.161543   -2.028960
H       0.991511    1.818661    0.027858
H      -0.553137    1.806787   -0.848497
H      -0.545493    1.649579    0.939704
H       0.218529   -2.601643   -0.349663
H       2.251563   -2.226146   -3.937981
