16

C       0.058212    1.476640    0.003818
C       1.288820    0.651405    0.055881
C       1.916832    0.327614    1.418518
N       0.810313   -0.368358    2.046411
N       0.658436   -0.904658    3.270562
C      -0.562366   -1.444650    3.210031
C      -1.190758   -1.265406    1.950680
C      -0.252318   -0.559660    1.230255
N      -0.053260   -0.005264   -0.056669
H      -0.280200    1.961892    0.915516
H      -0.204567    1.983445   -0.919273
H       1.922501    0.577483   -0.820647
H       2.791104   -0.323817    1.312498
H       2.211643    1.214092    1.988557
H      -0.957359   -1.955183    4.076697
H      -2.164578   -1.596794    1.633265
