16

C      -0.007249    1.499935   -0.022705
N       0.012170    0.046994   -0.001291
C       0.093066   -0.667746   -1.193285
C       0.095799   -1.998517   -1.261398
C      -0.000974   -2.835972   -0.022544
N       0.043425   -1.980919    1.156826
C      -0.010336   -0.613612    1.226274
O      -0.058603   -0.021822    2.291526
H       0.904518    1.899241   -0.482440
H      -0.873970    1.871798   -0.581062
H      -0.068693    1.843097    1.008517
H       0.155604   -0.047593   -2.080629
H       0.158815   -2.496839   -2.219521
H      -0.928122   -3.434805   -0.030618
H       0.825880   -3.562291    0.018509
H      -0.002829   -2.410715    2.066431
