21

C      -0.014978    1.542012    0.051482
C       0.017711    0.011089   -0.022824
C       0.727223   -0.562094   -1.260146
C       2.200793   -0.333082   -1.483735
C       1.735360   -1.606095   -0.817589
C       1.717821   -1.594238    0.693460
O       2.103132   -0.339962    1.284532
C       0.698412   -0.650587    1.186400
C      -0.033081   -0.764890    2.496650
H       0.998232    1.945771    0.126273
H      -0.486402    1.965837   -0.840514
H      -0.581655    1.887227    0.922924
H      -1.016616   -0.358884   -0.041825
H       0.116393   -0.728702   -2.141160
H       2.553996   -0.410516   -2.506540
H       2.729042    0.382690   -0.867210
H       1.846262   -2.559984   -1.319343
H       2.025207   -2.477207    1.248743
H      -0.276256    0.225512    2.897788
H      -0.971356   -1.316352    2.374244
H       0.584992   -1.282734    3.234383
