23

C       0.109586    1.526814    0.307377
C      -0.044703    0.074060   -0.161754
C      -1.459677   -0.464958   -0.062788
C      -1.950306   -1.454247   -1.094798
C      -2.552565   -0.069621   -1.043178
C      -3.853677    0.174589   -0.272343
C      -3.552819   -0.100562    1.205825
C      -3.190261   -1.496505    1.644872
C      -2.096215   -0.506305    1.322784
H       1.144222    1.866048    0.195299
H      -0.530320    2.196458   -0.276785
H      -0.163831    1.645819    1.360507
H       0.286790   -0.000496   -1.204544
H       0.631168   -0.571816    0.415328
H      -1.283320   -1.662469   -1.926399
H      -2.541737   -2.312425   -0.797920
H      -2.333172    0.593436   -1.874766
H      -4.146945    1.223699   -0.388943
H      -4.688653   -0.428043   -0.650233
H      -4.015620    0.550721    1.939947
H      -3.340097   -1.732861    2.693792
H      -3.379161   -2.336444    0.986543
H      -1.482673   -0.157857    2.146109
