17

C       0.028015    1.672594    0.377707
C      -0.004319    0.165719    0.133676
C       0.941019   -0.441115   -0.963034
C       1.621612   -1.277102    0.123022
N       2.167743   -0.314282    1.113856
C       0.744234   -0.714451    1.178683
C      -1.433103   -0.324223    0.010878
O      -1.853044   -1.089361   -0.818919
H       1.044914    1.977309    0.633236
H      -0.288972    2.223451   -0.514319
H      -0.636503    1.957255    1.202248
H       0.368967   -1.036100   -1.676331
H       1.588925    0.269257   -1.480993
H       2.039805   -2.271431    0.030188
H       2.658122   -0.854976    1.826471
H       0.329172   -1.166029    2.072396
H      -2.108610    0.083130    0.800124
