18

C       0.118189    1.403502    0.216237
N       0.059582   -0.048425    0.201572
C      -1.032305   -0.617796   -0.112261
C      -1.132190   -2.129628   -0.074643
O      -2.060722   -2.625430   -1.016481
C      -3.354278   -2.117802   -0.770321
C      -3.402960   -0.603147   -0.842328
N      -4.479933   -0.022906   -1.191287
N      -2.212453    0.023465   -0.483304
H       1.099246    1.720306    0.577128
H      -0.014675    1.835804   -0.787967
H      -0.638182    1.855468    0.877918
H      -0.153512   -2.546865   -0.310925
H      -1.408737   -2.447278    0.945768
H      -4.026810   -2.521988   -1.526747
H      -3.716710   -2.436505    0.222344
H      -4.397664    0.995951   -1.157086
H      -2.192356    1.030687   -0.555063
