23

C      -0.400407    1.270360   -0.060334
C       0.063829   -0.180358    0.015734
C       1.317594   -0.503175   -0.855523
C       2.201595   -0.349420    0.413647
C       0.919604   -0.518773    1.276032
C       0.713301   -1.936574    1.802150
C       0.826564   -3.071159    0.816355
C       1.071701   -3.061550   -0.496542
C       1.318775   -1.912840   -1.440640
H       0.430345    1.967449    0.099905
H      -0.835799    1.495802   -1.040397
H      -1.160737    1.483063    0.699644
H      -0.789315   -0.848213   -0.148445
H       1.516208    0.215108   -1.658099
H       2.997005   -1.086193    0.556770
H       2.634439    0.650200    0.501779
H       0.813346    0.187555    2.106282
H       1.429951   -2.123032    2.617054
H      -0.277256   -1.999403    2.279506
H       0.679600   -4.049068    1.274221
H       1.102433   -4.032495   -0.990373
H       0.567363   -1.966294   -2.244096
H       2.281678   -2.089641   -1.944607
