19

C       0.089099    1.472789    0.063541
N      -0.095593    0.028157    0.079670
C       0.546741   -0.741759    1.012750
C       0.715135   -2.099535    1.122639
C       0.255379   -3.169862    0.183060
C       1.416593   -2.225166    2.355681
C       1.880840   -3.482499    3.019408
N       1.647422   -1.068871    2.934875
O       1.087683   -0.106057    2.059642
H       1.120676    1.776468   -0.162694
H      -0.578849    1.899694   -0.687510
H      -0.178200    1.885494    1.038378
H      -0.163247   -0.407732   -0.826645
H       1.003951   -3.423981   -0.579358
H       0.023748   -4.094389    0.721501
H      -0.658878   -2.872283   -0.343231
H       2.599467   -4.018975    2.390503
H       2.358489   -3.247115    3.972329
H       1.041615   -4.161111    3.207503
