16

O       0.226912    1.237682    0.435073
C       0.031652   -0.134117    0.204278
C      -0.617242   -0.891442    1.301010
N      -1.635196    0.034000    1.926781
H      -2.158874   -0.370259    2.699717
H      -1.229942    0.934337    2.195127
C      -2.404069    0.070972    0.584974
C      -1.309975   -0.744771   -0.076493
C      -1.585209   -1.856786   -1.126776
O      -2.791141   -1.934615   -1.415679
O      -0.566444   -2.475773   -1.462967
H       0.207025    1.689949   -0.415592
H       0.830907   -0.683099   -0.289634
H      -0.244353   -1.726940    1.877935
H      -3.324477   -0.503992    0.667504
H      -2.590961    1.096909    0.263087
