19

C       0.156444    1.522952   -0.061976
C      -0.102365    0.029411   -0.085195
O       0.691988   -0.535193   -1.151556
C       0.608025   -1.867291   -1.303960
O      -0.061103   -2.587406   -0.605376
C       1.443266   -2.330095   -2.485180
C       1.808495   -3.815602   -2.386467
C       2.266338   -4.376037   -3.712029
O       3.280256   -4.998493   -3.889985
H       1.213691    1.733473    0.121649
H      -0.126689    1.984341   -1.012193
H      -0.431044    1.987647    0.735296
H       0.179301   -0.453047    0.855596
H      -1.155778   -0.203355   -0.269956
H       0.842983   -2.144926   -3.387400
H       2.327668   -1.693769   -2.574091
H       2.581479   -3.996708   -1.635531
H       0.907891   -4.363959   -2.078696
H       1.564147   -4.172055   -4.556716
