20

C       0.222511    1.550975   -0.350650
C       0.019006    0.090245   -0.009166
O       0.809756   -0.801043   -0.831184
C       1.374760   -1.470562    0.321169
C       2.887723   -1.517377    0.298692
C       0.671868   -0.474514    1.277605
O       1.549663    0.425557    1.927566
C       1.426892    0.600726    3.259255
N       2.195447    1.396203    3.863639
H       1.265297    1.844603   -0.217537
H      -0.065138    1.723732   -1.392067
H      -0.401628    2.185137    0.287651
H      -1.046243   -0.174651   -0.075562
H       0.960697   -2.485145    0.413425
H       3.312299   -0.512004    0.281424
H       3.268898   -2.040836    1.181775
H       3.220854   -2.059152   -0.591610
H      -0.016497   -0.918895    2.003096
H       0.623263   -0.003243    3.703829
H       1.970548    1.410852    4.856000
