16

O      -0.072709    1.489646   -0.201135
C       0.012792    0.087054   -0.203655
C      -1.356360   -0.563180    0.061834
C      -1.401925   -2.094898    0.036947
O      -2.302745   -2.509802    1.093860
C      -2.521506   -1.507697    1.984241
N      -3.169048   -1.584116    3.064155
C      -1.870681   -0.244563    1.456592
O      -1.757081    0.798822    2.048943
H      -0.462803    1.742699    0.647352
H       0.380923   -0.211461   -1.191232
H       0.735578   -0.287298    0.541217
H      -2.077399   -0.144038   -0.651868
H      -1.786038   -2.509361   -0.896151
H      -0.416551   -2.532813    0.236847
H      -3.520069   -2.532672    3.215319
