17

O       0.023430   -0.062009   -0.096864
C      -0.003839    1.148733   -0.014807
C      -1.318586    1.913865    0.089581
C      -1.216011    3.245994    0.805870
O      -1.023528    3.106633    2.234142
C       0.012236    4.103939    2.231226
C       0.100481    4.053255    0.677892
C       1.269518    3.267733    0.183449
C       1.231976    1.957454   -0.090286
H      -1.669493    2.084503   -0.937789
H      -2.061427    1.276347    0.577691
H      -2.105215    3.858910    0.602433
H      -0.340281    5.068527    2.620904
H       0.897731    3.783035    2.789404
H       0.030833    5.022684    0.178359
H       2.213729    3.804888    0.108629
H       2.125695    1.411129   -0.375499
