18

O      -0.678291    0.930590    0.853749
C       0.095566    0.999819   -0.065053
C       1.306012    1.908380   -0.111849
C       1.238307    2.908403   -1.286985
C       0.092836    3.900976   -1.083107
O      -0.349555    4.606348   -1.953209
C       2.580645    3.620480   -1.476649
C       2.726891    4.859832   -2.273180
N       2.913286    4.890380   -0.808906
H      -0.044523    0.378517   -0.981120
H       1.398823    2.427882    0.846800
H       2.192695    1.274866   -0.244095
H       1.021558    2.367452   -2.218610
H      -0.319054    3.945242   -0.049862
H       3.414471    2.919804   -1.478431
H       3.633350    5.020083   -2.849881
H       1.826790    5.299435   -2.690736
H       2.089848    5.297154   -0.369952
