17

N      -0.104407    1.282867   -0.150576
C      -0.055693    0.035541    0.008982
O      -1.191718   -0.698214   -0.115521
C      -1.053912   -2.086600   -0.015208
C      -2.420792   -2.714329    0.171546
C      -2.290819   -4.237258    0.053359
N      -1.505898   -4.657947   -1.103415
C      -0.716538   -3.819007   -1.617286
O      -0.438219   -2.542661   -1.224779
H       0.817654    1.689509   -0.006589
H       0.827363   -0.566369    0.257203
H      -0.373636   -2.341820    0.811506
H      -2.834238   -2.411808    1.137362
H      -3.077215   -2.323985   -0.612715
H      -1.832383   -4.662604    0.956519
H      -3.283051   -4.692255   -0.024187
H      -0.129193   -4.062065   -2.499962
