22

C      -0.202126    1.549476    0.140890
C       0.197774    0.092116   -0.119303
C       0.842502   -0.553098    1.095481
N      -0.071025   -0.794232    2.300770
C      -0.536546   -2.143279    1.684406
C      -0.234589   -2.888981    2.986885
C       0.908546   -1.891162    2.791579
C       0.965746   -2.074710    1.237706
C       1.761950   -3.067153    0.429342
H       0.673590    2.160156    0.387117
H      -0.682563    1.993212   -0.736373
H      -0.897342    1.612799    0.982896
H      -0.683622   -0.483967   -0.426531
H       0.904178    0.042239   -0.958705
H       1.736435    0.013802    1.395747
H      -1.426861   -2.193773    1.056054
H      -0.910450   -2.687847    3.822174
H       0.008816   -3.951573    2.909854
H       1.734420   -1.626581    3.455886
H       1.629077   -4.087198    0.806606
H       1.453810   -3.057361   -0.622019
H       2.831885   -2.833270    0.465537
