20

C      -0.115956    1.619773   -0.000733
C       0.051358    0.109142    0.010732
O      -1.221783   -0.531618   -0.072047
C       1.086143   -0.625550   -0.902381
C       2.436405    0.084811   -0.914249
O       2.718705    0.693872    0.343352
C       2.131806    0.065674    1.481220
C       0.831036   -0.644464    1.123257
N       1.208829   -1.716377    0.130899
H       0.839554    2.132915    0.113915
H      -0.567156    1.944854   -0.947526
H      -0.789052    1.925366    0.806687
H      -1.661230   -0.207944   -0.865941
H       0.777435   -0.938702   -1.904696
H       3.211406   -0.651037   -1.172925
H       2.459279    0.893339   -1.654022
H       2.819265   -0.674941    1.914160
H       1.965935    0.862658    2.214893
H       0.277178   -0.973143    2.006147
H       0.389401   -2.310924    0.025069
