16

O      -0.206069    1.465912    0.012169
C       0.024985    0.066719    0.003504
C      -1.346993   -0.596821    0.010853
C      -1.277220   -2.082778    0.002909
N      -0.236886   -2.812565   -0.008060
C      -0.713670   -4.189628   -0.011544
C      -2.234673   -4.089452   -0.000337
O      -3.089741   -4.916054    0.001596
O      -2.505426   -2.723390    0.008388
H       0.646485    1.910196    0.009085
H       0.585371   -0.251621   -0.886726
H       0.599074   -0.260343    0.881748
H      -1.914957   -0.272416    0.891159
H      -1.928572   -0.263707   -0.857221
H      -0.370879   -4.734782   -0.897646
H      -0.358480   -4.743524    0.864194
