15

N       0.037807    1.303403    0.060424
C      -0.042310   -0.062536    0.021604
N      -1.135115   -0.784104   -0.032037
C      -0.621691   -2.050720    0.094456
C       0.710020   -2.061800    0.233778
C       1.267945   -3.425916    0.043116
C      -0.101982   -4.194471    0.195901
O      -1.209999   -3.262262   -0.023415
O       1.131023   -0.738095    0.147521
H       0.888941    1.692364   -0.318117
H      -0.802218    1.757438   -0.265855
H       1.725017   -3.584318   -0.944671
H       1.981286   -3.775073    0.797211
H      -0.220098   -5.012769   -0.515538
H      -0.198865   -4.581672    1.214998
