17

C       0.701820    1.352987    0.247225
C      -0.338822    0.272916    0.014109
O      -1.100832   -0.087189    0.881400
C      -0.359166   -0.300356   -1.379757
N      -0.933849   -1.646429   -1.561507
C      -1.630149   -0.510986   -2.159888
C      -3.016401   -0.245251   -1.616817
O      -3.930915   -1.204783   -2.127996
H       0.597273    1.757107    1.254298
H       1.709415    0.939526    0.119625
H       0.593701    2.156654   -0.490479
H       0.509921   -0.041149   -1.981639
H      -0.393599   -2.152897   -2.257826
H      -1.537940   -0.377513   -3.237354
H      -2.992441   -0.248114   -0.522671
H      -3.373204    0.732049   -1.958628
H      -3.655836   -2.055236   -1.767297
