18

C      -0.029655    1.555470    0.021312
C      -0.011692    0.025334   -0.026975
N       0.655982   -0.503122   -1.204702
C       0.050423   -0.932917   -2.372733
C       1.027336   -1.303463   -3.265977
C       2.280037   -1.072361   -2.626544
O       3.566040   -1.338534   -3.057188
C       2.010996   -0.579019   -1.373165
O       2.842336   -0.208031   -0.363935
H       0.989734    1.949321    0.048982
H      -0.536604    1.966384   -0.856751
H      -0.555819    1.899725    0.917428
H       0.492699   -0.372084    0.859202
H      -1.030710   -0.372685   -0.028640
H      -1.024251   -0.944879   -2.451363
H       0.871138   -1.705300   -4.255182
H       3.721931   -0.858974   -3.877283
H       3.737653   -0.391921   -0.673400
