19

C      -0.085729    1.577140   -0.082335
C       0.002155    0.053213   -0.040778
C       1.178276   -0.529302   -0.882638
C       2.006169   -0.692380    0.420736
C       0.685758   -0.566393    1.224792
C       0.681102    0.215217    2.544919
C       1.466233   -0.454320    3.580904
N       2.092411   -1.000186    4.384508
H       0.886263    2.050538    0.096772
H      -0.429485    1.907646   -1.068036
H      -0.791216    1.966959    0.659805
H      -0.982845   -0.368063   -0.263466
H       0.927237   -1.492008   -1.335253
H       1.590627    0.121421   -1.658075
H       2.584051   -1.609331    0.549453
H       2.672304    0.158606    0.593472
H       0.269722   -1.561408    1.410003
H       1.089357    1.221578    2.401704
H      -0.344020    0.339889    2.914625
