17

C       0.056627    1.485123   -0.015133
C       0.030791   -0.013316    0.002162
C       0.609058   -1.007593   -1.065691
O       2.013794   -0.928407   -1.241761
C       0.022637   -1.989719    0.015315
C       0.614532   -1.006329    1.107920
O       1.967618   -0.998879    1.415546
C      -1.143714   -0.998343    0.013312
O      -2.337116   -0.988630    0.027164
H       1.084849    1.856325    0.041653
H      -0.399208    1.879490   -0.929086
H      -0.496990    1.889487    0.837990
H       0.108804   -1.009781   -2.040872
H       2.294107   -1.681288   -1.773007
H       0.011837   -3.076910    0.007741
H       0.075454   -0.999899    2.057881
H       2.449334   -0.968771    0.576251
