18

C      -0.013765    1.434831   -0.004193
C       1.483013    1.843649    0.157698
N       2.089062    0.539863    0.429167
C       3.414162    0.236054    0.671799
N       3.858083   -0.912709    1.000512
C       2.847085   -1.954343    1.188602
C       1.645260   -1.853842    0.227765
C       1.129146   -0.449037    0.204194
N      -0.050644   -0.039703   -0.051108
H      -0.621068    1.785434    0.838340
H      -0.456967    1.849593   -0.913922
H       1.896991    2.287354   -0.756208
H       1.650625    2.540274    0.983648
H       4.100358    1.076926    0.570023
H       3.328406   -2.930146    1.079264
H       2.488822   -1.897622    2.227639
H       1.971563   -2.108282   -0.789338
H       0.843364   -2.545671    0.493911
