14

N      -0.074559   -1.078025   -0.020997
C      -0.067693    0.079559   -0.020824
C      -0.066872    1.505442   -0.022668
N      -1.384983    2.263794    0.370166
C      -0.572918    3.363485   -0.194349
N      -0.011716    4.133146    0.645853
C       1.419942    3.726438    0.637448
C       1.335153    2.329568   -0.011408
C       0.335757    2.456353   -1.092214
H      -2.049493    1.903874   -0.325307
H       2.108379    4.373570    0.074411
H       1.735858    3.723110    1.684430
H       2.207447    1.688907   -0.111765
H       0.393108    2.343549   -2.166500
