17

O      -0.040919    0.050090    0.209138
C      -0.051102    1.235816    0.002889
C      -1.297489    2.100741   -0.192461
C      -0.809040    3.354674   -0.919602
O      -1.493544    4.110862   -1.558543
C       0.699262    3.477816   -0.723121
C       1.111810    4.201670    0.605057
C       1.595014    2.848384    1.194910
C       1.184518    2.121079   -0.132085
H      -2.107590    1.585133   -0.711255
H      -1.682317    2.392927    0.794933
H       1.173076    3.862533   -1.626511
H       1.903724    4.938279    0.461404
H       0.292624    4.689420    1.139034
H       2.666674    2.800992    1.394000
H       1.071805    2.504752    2.090613
H       1.989250    1.582137   -0.632634
