19

C      -0.077498    1.568900    0.050416
C       0.026309    0.054342   -0.004644
O      -1.271905   -0.461713   -0.215929
C       1.064907   -0.564425   -0.971443
C       2.387321   -0.093905   -0.369412
O       2.113702   -0.081357    1.051859
C       0.785549   -0.597308    1.190307
C       0.802977   -2.065854    0.753889
O       0.913103   -1.970143   -0.695083
H       0.842933    2.023708    0.419456
H      -0.311563    1.976138   -0.937956
H      -0.894239    1.844629    0.723657
H      -1.164005   -1.325418   -0.634026
H       0.927845   -0.399616   -2.039972
H       3.199507   -0.794411   -0.593122
H       2.678637    0.910211   -0.699525
H       0.421707   -0.395604    2.196853
H       1.669455   -2.594665    1.162101
H      -0.112558   -2.608126    1.012790
