18

C      -0.011900    1.609769   -0.069743
C       0.161055    0.102111   -0.087138
C       0.831563   -0.567120   -1.333084
C       1.545269   -1.552194   -0.363840
C       1.237924   -0.589512    0.827857
C       2.358929    0.266320    1.185229
N       3.249905    0.951362    1.458290
C      -0.103134   -1.161969   -2.349300
O      -0.135299   -0.878532   -3.518088
H       0.943052    2.121134   -0.220690
H      -0.696903    1.923333   -0.864036
H      -0.426890    1.947036    0.885755
H      -0.795953   -0.393586    0.113030
H       1.529316    0.110841   -1.829698
H       0.993825   -2.490049   -0.252001
H       2.592662   -1.773943   -0.566843
H       0.853319   -1.058207    1.737024
H      -0.808889   -1.915858   -1.920379
