17

C      -0.127787    1.583239    0.124340
C       1.395617    1.349248    0.043479
C       1.301098   -0.028099    0.800776
O       2.044405   -0.773977   -0.194418
C       1.202556    0.172139   -0.968229
C       0.705634   -0.192176   -2.317662
C      -0.480955   -0.807360   -2.174414
C      -0.969736   -0.923537   -0.724228
C      -0.023482    0.049518   -0.034088
H      -0.520780    1.959310    1.072940
H      -0.572177    2.124457   -0.716050
H       2.220742    2.060134    0.097884
H       1.474776   -0.250080    1.854804
H       1.233889   -0.056534   -3.253274
H      -1.050709   -1.225423   -2.999819
H      -2.027043   -0.660305   -0.614475
H      -0.857715   -1.955994   -0.370998
