16

C       0.334355    1.641141    0.076905
C      -0.092722    0.202926   -0.255386
N       0.703059   -0.346631   -1.339328
C       1.781533   -0.979128   -1.072580
N       2.358516   -1.298810    0.123360
C       2.545201   -1.504411   -2.251951
O       3.597055   -2.091705   -2.150086
C       1.937785   -1.256436   -3.568154
N       1.557269   -1.119666   -4.651155
H       1.365885    1.678586    0.442475
H       0.272588    2.269527   -0.815248
H      -0.317409    2.063263    0.847459
H      -0.050996   -0.422683    0.650959
H      -1.136013    0.209821   -0.586564
H       2.114787   -0.790312    0.954488
H       3.282145   -1.701433    0.077906
