17

C      -1.251494    0.673662    0.390033
C       0.083040    0.085713    0.026046
N       1.107956    0.062045    0.786007
O       0.860308    0.665008    2.019836
C       0.281423   -0.503410   -1.363041
C       1.725271   -0.976007   -1.674292
O       1.845155   -1.408859   -3.010681
C      -0.649069   -1.617816   -1.590299
N      -1.346773   -2.519228   -1.784004
H      -1.500367    0.435089    1.426160
H      -1.219286    1.766649    0.309727
H      -2.040418    0.302925   -0.267365
H       1.695554    0.538628    2.483233
H       0.027875    0.268762   -2.103432
H       2.397899   -0.125420   -1.551213
H       2.023263   -1.745083   -0.952490
H       1.370058   -2.242223   -3.103963
