23

C      -0.130764    1.546152   -0.019203
C       0.033248    0.024721    0.017838
C       0.941232   -0.539240   -1.110685
C       1.976046   -1.276245   -0.271312
C       1.266966   -1.974206    0.932090
C       2.541461   -1.741408    1.777193
C       2.328250   -0.425524    0.991851
C       0.776999   -0.514716    1.259542
C       0.175050   -0.174442    2.607916
H       0.839532    2.050576    0.059640
H      -0.592618    1.865270   -0.959574
H      -0.763518    1.909016    0.797316
H      -0.964365   -0.432097   -0.027220
H       0.406293   -1.206442   -1.794614
H       1.390519    0.256947   -1.715271
H       2.783701   -1.809965   -0.776779
H       0.644839   -2.872157    0.889423
H       2.434470   -1.709181    2.863587
H       3.418988   -2.331999    1.497978
H       2.947245    0.474642    1.019204
H       0.167895    0.907564    2.777500
H      -0.864563   -0.519320    2.662886
H       0.717872   -0.631590    3.439384
