22

C      -0.531710    1.558881    0.050042
C       0.583703    2.610551   -0.073260
C       1.436053    2.607898   -1.360266
C       2.672686    1.711640   -1.370540
N       2.876285    0.769607   -0.264646
C       2.618975    0.227134   -1.611814
C       1.354579   -0.477457   -1.922282
C       0.218659   -0.528473   -1.221696
C      -0.082685    0.079427    0.125107
H      -1.094222    1.788724    0.963748
H      -1.240037    1.680427   -0.780832
H       0.100037    3.592899   -0.006711
H       1.250368    2.533050    0.792305
H       0.802340    2.360982   -2.221687
H       1.788015    3.631704   -1.531388
H       3.566530    2.198278   -1.758060
H       3.862155    0.681835   -0.037818
H       3.481533   -0.176175   -2.140224
H       1.368168   -0.965419   -2.895672
H      -0.614017   -1.052593   -1.688870
H       0.786144    0.005708    0.780957
H      -0.892966   -0.498462    0.584263
