20

C      -0.012372    1.495633   -0.046318
C      -0.009965   -0.009165    0.047952
C      -0.863147   -0.693692    1.082756
C       0.657367   -0.701265    1.214900
C       1.431606   -1.997439    0.978269
C       1.708542   -2.229025   -0.516272
C       0.472175   -1.909226   -1.350857
O       0.106370   -0.541758   -1.248991
H       0.920981    1.854328   -0.492143
H      -0.841203    1.837059   -0.675239
H      -0.122184    1.946436    0.943689
H      -1.445429   -0.078075    1.760341
H      -1.337132   -1.635023    0.823070
H       1.068136   -0.047866    1.978901
H       2.378266   -1.965376    1.526538
H       0.871947   -2.848836    1.385190
H       2.523907   -1.577833   -0.852899
H       2.020091   -3.263775   -0.695925
H       0.657785   -2.077469   -2.415635
H      -0.366808   -2.562961   -1.058562
