21

O       0.101982    1.424597    0.289240
C      -0.003299    0.057670    0.622847
C      -1.358926   -0.521643    0.233199
C      -1.542187   -2.023058    0.365535
C      -0.661026   -2.830195   -0.569579
C       0.681298   -3.360982   -0.126837
C      -0.473359   -4.307610   -0.341801
C      -2.527727    0.366402    0.243045
O      -1.863776    0.045324   -0.993752
H      -0.246798    1.494618   -0.609802
H       0.788132   -0.535144    0.140308
H       0.136102   -0.027453    1.706909
H      -1.347867   -2.317265    1.406039
H      -2.594389   -2.256566    0.164553
H      -0.730643   -2.514813   -1.606939
H       1.496955   -3.368815   -0.841459
H       0.992284   -3.171308    0.895707
H      -0.935947   -4.747103    0.536366
H      -0.450428   -4.964175   -1.204379
H      -3.524066   -0.058663    0.351265
H      -2.410366    1.396802    0.568335
