14

N       0.047919   -1.114751    0.037287
C       0.042862    0.039494    0.012810
C      -0.031823    1.487844   -0.008547
C      -0.658481    2.175856    1.266741
O      -0.110321    3.487692    1.173597
C       0.735433    3.436377    0.000490
O       1.257611    2.124148    0.028532
C      -0.200250    3.402784   -1.204150
C      -0.700181    2.167918   -1.204949
H      -1.751155    2.196534    1.237882
H      -0.307237    1.684263    2.178314
H       1.513972    4.190781    0.075403
H      -0.481995    4.252171   -1.809287
H      -1.490608    1.730253   -1.796395
