21

C       0.099969    1.467819    0.132485
C      -0.149621    0.022078   -0.295466
C      -1.558063   -0.454786   -0.021700
O      -2.469580    0.305128    0.235529
C      -1.857595   -1.960460   -0.057058
O      -3.244392   -2.150398    0.095176
C      -1.418546   -2.614471   -1.382477
C      -1.651760   -4.125464   -1.375971
O      -2.103185   -1.976395   -2.450214
H       1.112963    1.777621   -0.137311
H      -0.611552    2.141001   -0.350227
H      -0.018441    1.584432    1.213409
H       0.004075   -0.092722   -1.377805
H       0.560095   -0.669448    0.176016
H      -1.302700   -2.423699    0.778392
H      -3.588540   -1.266610    0.315087
H      -0.353669   -2.414137   -1.545063
H      -2.700284   -4.348472   -1.159315
H      -1.398784   -4.540453   -2.354916
H      -1.033426   -4.617382   -0.617353
H      -3.034952   -1.980965   -2.191495
