16

O      -0.053319    0.107925   -0.451081
C       0.000765    1.266325   -0.108192
N       1.138705    1.881256    0.328154
C       2.561417    1.424773    0.298024
C       2.922898    2.852315    0.868062
O       3.747882    3.802726    0.244236
C       2.911919    4.975037    0.053321
C       1.475528    4.452647   -0.034031
C       1.535705    3.223642    0.466849
H      -0.870034    1.950334   -0.085755
H       2.770447    0.564638    0.935033
H       2.906905    1.254345   -0.724510
H       3.113284    2.793228    1.949045
H       3.081643    5.684077    0.878517
H       3.219450    5.461824   -0.878503
H       0.684590    4.952482   -0.572868
