21

C       0.004390    1.612755    0.420198
C      -0.125593    0.177039   -0.112251
O       0.437127    0.077908   -1.391778
C       0.526545   -0.839823    0.826193
O       1.427727   -1.536851    0.399549
C       0.048144   -0.941053    2.251158
C       0.146893   -2.328095    2.948692
C       0.692205   -1.626878    4.219556
C       1.027042   -0.389217    3.348218
H       1.058601    1.881965    0.534097
H      -0.446046    2.298719   -0.301277
H      -0.502170    1.740924    1.381292
H      -1.199559   -0.082303   -0.150357
H       1.108942   -0.619919   -1.317135
H      -0.943887   -0.494770    2.359946
H      -0.776348   -2.904714    3.035196
H       0.908749   -2.935295    2.455019
H      -0.101158   -1.411370    4.940742
H       1.519151   -2.107374    4.746484
H       2.058549   -0.413741    2.987887
H       0.811115    0.602735    3.750216
