17

C      -0.039239    1.509765    0.272644
C       0.061328   -0.005052    0.184377
O       1.107905   -0.619653    0.297408
N      -1.119282   -0.648781   -0.024379
C      -2.464208   -0.220326   -0.415704
C      -2.827944   -1.711988   -0.627994
O      -3.287975   -1.945999   -1.934198
C      -1.335690   -2.062503   -0.321743
H       0.930673    1.904911    0.573129
H      -0.312059    1.935643   -0.699387
H      -0.802313    1.820810    0.993157
H      -3.024337    0.312586    0.359854
H      -2.505892    0.347030   -1.352952
H      -3.524334   -2.100489    0.124674
H      -3.454479   -2.888699   -2.035782
H      -0.783359   -2.414602   -1.200326
H      -1.146864   -2.734606    0.521175
