17

C       0.043932   -1.228389   -0.084808
C       0.003488   -0.028248   -0.062102
C      -0.044310    1.428659   -0.006245
N       1.288561    2.005086    0.096429
C       2.090039    1.778256    1.318820
C       2.616732    3.227952    1.197128
C       1.390657    3.466262    0.269499
C       1.565075    4.240547   -0.958698
N       1.705192    4.862721   -1.922471
H       0.076418   -2.289451   -0.117836
H      -0.512734    1.820208   -0.918359
H      -0.690615    1.735893    0.840396
H       1.472436    1.636440    2.219675
H       2.807529    0.958265    1.245014
H       2.659698    3.831746    2.102180
H       3.559142    3.296130    0.654316
H       0.546158    3.896544    0.834376
