19

C      -0.333029    1.479567    0.406576
N       0.135777    0.148352    0.032923
C      -0.945233   -0.773628   -0.387484
C      -1.200648   -1.764750    0.787730
C       0.069444   -1.696966    1.618088
C       1.405761   -1.899265    0.895307
C       1.509760   -2.530680   -0.388422
N       1.604811   -3.057665   -1.414635
C       0.833834   -0.500944    1.112149
H       0.520812    2.101672    0.692167
H      -0.807796    1.949707   -0.458669
H      -1.055735    1.486105    1.242736
H      -1.840289   -0.204586   -0.650122
H      -0.630301   -1.320584   -1.278473
H      -2.041229   -1.443012    1.411146
H      -1.427133   -2.768682    0.418317
H       0.035358   -1.976793    2.664342
H       2.238210   -2.141232    1.549148
H       1.405196    0.156044    1.757179
