18

O       0.125227    1.411358   -0.004285
C      -0.036146    0.023465   -0.260465
C      -1.453111   -0.425199   -0.038962
C      -1.941889   -0.952429    1.256748
N      -1.822512   -1.895330    0.126116
C      -3.025748   -1.624786   -0.747806
C      -2.626456   -0.153433   -0.983378
C      -2.972594   -2.538189   -1.954205
O      -3.019323   -2.167404   -3.097931
H      -0.108364    1.567034    0.916971
H       0.246202   -0.118136   -1.308877
H       0.639756   -0.595086    0.350184
H      -1.209596   -1.142454    2.036630
H      -2.934099   -0.690033    1.619428
H      -3.974504   -1.814080   -0.225413
H      -3.331631    0.623575   -0.681095
H      -2.327165    0.016797   -2.018925
H      -2.876030   -3.613867   -1.688922
