21

C       0.357797    0.505890   -1.482083
C       0.003335    0.222085   -0.020713
O       0.020057    1.420095    0.759543
C      -1.342360   -0.469582    0.091221
C      -1.515832   -1.957956    0.156474
C      -0.363920   -2.941084    0.103798
N      -1.818073   -1.113724    1.313342
C      -0.982529   -1.138795    2.506716
H       1.294842    1.065912   -1.539463
H       0.466348   -0.423384   -2.050703
H      -0.427267    1.102377   -1.962851
H       0.792602   -0.391094    0.420881
H      -0.717459    1.967912    0.467378
H      -2.126852    0.099101   -0.418301
H      -2.418364   -2.357825   -0.307682
H       0.566716   -2.552609    0.520630
H      -0.617370   -3.854759    0.652873
H      -0.167549   -3.228134   -0.934981
H       0.075621   -1.387400    2.347017
H      -1.020217   -0.152571    2.976174
H      -1.396947   -1.872869    3.205354
