14

O       0.032206    1.384819   -0.118897
C       0.054248    0.028682    0.005768
C      -0.171312   -0.859654   -1.232508
N       0.675391   -2.036969   -1.411033
C       0.633336   -2.629728   -0.289607
N      -0.166090   -1.984727    0.751577
C      -1.052989   -1.064128   -0.053029
C       0.632615   -0.763479    1.102681
N       1.334533   -0.462667    2.098576
H       0.071939    1.761606    0.769687
H      -0.502037   -0.330717   -2.117454
H       1.185543   -3.529179   -0.044237
H      -2.126377   -1.035349    0.075681
H       1.431646   -1.250164    2.741216
