20

C       0.065878    1.484715   -0.029596
C      -0.046122   -0.027323    0.001193
C      -1.489047   -0.564950    0.040638
C      -1.557129   -1.228864    1.433341
O      -0.235269   -1.684539    1.728122
C       0.671117   -0.756004    1.162046
C       1.649855   -1.313258    0.127604
C       0.936098   -2.073039   -0.908764
N       0.936411   -0.603578   -1.021468
H       1.110261    1.798765    0.057720
H      -0.321720    1.875839   -0.975689
H      -0.502686    1.934681    0.791676
H      -2.231189    0.229928   -0.070115
H      -1.667222   -1.294938   -0.752810
H      -1.890400   -0.501727    2.190711
H      -2.222880   -2.095106    1.479723
H       1.124589   -0.115550    1.927852
H       2.730409   -1.295079    0.217467
H       1.534849   -2.541210   -1.683914
H       0.031454   -2.613322   -0.648023
