14

O       0.399274   -0.103700    0.075379
C       0.159289    1.044334    0.302317
O      -0.930979    1.390928    1.030444
C      -1.295124    2.758207    1.242462
C      -0.112577    3.679244    1.436956
N       1.034234    3.100260    2.111740
C       1.129963    3.392842    0.657117
C       1.064329    2.191461   -0.215934
O       1.635004    2.090603   -1.270678
H      -1.903682    3.110662    0.399636
H      -1.926489    2.746255    2.135326
H      -0.369381    4.722475    1.607111
H       1.552900    3.804409    2.629117
H       1.758995    4.204700    0.307101
