23

C      -0.048126    1.568911   -0.005825
C      -0.000002    0.028256   -0.025251
C      -1.414073   -0.578418    0.071292
C       0.702555   -0.462613   -1.211933
C       1.282053   -0.849277   -2.194340
C       1.945643   -1.347650   -3.405135
C       1.930965   -2.888492   -3.415409
C       1.247498   -0.782026   -4.656991
O       3.300291   -0.875560   -3.350520
H       0.957923    1.993638   -0.050927
H      -0.614103    1.947018   -0.862904
H      -0.533734    1.922140    0.909688
H       0.565117   -0.300045    0.858435
H      -2.023443   -0.273470   -0.785276
H      -1.374259   -1.670789    0.086852
H      -1.911409   -0.236874    0.984771
H       0.907495   -3.273502   -3.407251
H       2.429717   -3.262426   -4.317638
H       2.458428   -3.271322   -2.539094
H       1.299561    0.308821   -4.650958
H       1.742853   -1.153603   -5.562104
H       0.197440   -1.084962   -4.694157
H       3.740417   -1.197174   -4.145594
