16

N      -0.105523    1.312766   -0.025678
C      -0.044672    0.045139    0.011908
N       1.111335   -0.743302    0.034887
C       1.069382   -2.133283    0.063706
O       2.063276   -2.818847    0.070288
C      -0.366848   -2.646870    0.060304
C      -1.164481   -1.926198   -1.058941
C      -1.291661   -0.809980    0.014542
N      -1.098816   -1.839827    1.107273
H       0.823797    1.739533   -0.033336
H       2.025858   -0.311997    0.056758
H      -0.376336   -3.731144    0.159673
H      -0.677007   -1.703800   -2.012315
H      -2.125577   -2.415042   -1.235054
H      -2.177008   -0.179973    0.069752
H      -2.000828   -2.290278    1.258079
