15

O       0.015444    0.051312   -0.380303
C      -0.004147    1.202625   -0.088239
C      -1.127119    2.207162    0.366758
C      -0.003048    3.139180    0.868292
N       0.715593    2.859865    2.156172
C       1.827448    3.095874    1.186208
C       1.048930    4.156574    0.292527
N       1.324709    3.397867   -0.970121
C       1.066663    2.335457    0.065668
H      -1.705660    2.585800   -0.481428
H      -1.816434    1.833330    1.126084
H       0.620063    3.643684    2.805211
H       2.886295    3.083945    1.454959
H       1.080437    5.249723    0.344481
H       0.525603    3.479564   -1.606558
