19

C      -0.131874    1.551238   -0.063261
C       0.049549    0.040736   -0.044425
O      -1.233923   -0.551017   -0.299209
C       1.296776   -0.641472   -0.704418
C       2.128461   -0.130720    0.513705
C       0.816928   -0.673277    1.125226
O       0.506570   -0.649234    2.468638
C       1.026671   -1.914437    0.177718
O       0.020323   -2.836052   -0.085986
H      -0.518797    1.872889   -1.039207
H      -0.862898    1.840286    0.697758
H       0.787970    2.107311    0.116111
H      -1.606913   -0.135591   -1.084006
H       1.589266   -0.608958   -1.752019
H       3.026500   -0.706486    0.744467
H       2.318736    0.937290    0.584531
H      -0.214999   -1.272189    2.613744
H       1.928907   -2.488370    0.405622
H      -0.770710   -2.319762   -0.300471
