19

C      -0.302105    1.083438   -0.506146
N       0.783753    1.373037    0.443728
C       0.373475   -0.023566    0.222070
C      -0.261391   -0.721524    1.365007
C      -0.959380   -0.093056    2.560061
C      -0.661041   -1.439908    3.242410
C      -1.514110   -2.494470    2.509728
C      -0.601790   -2.180645    1.338331
N       0.508582   -1.691487    2.231995
H      -1.284274    1.421222   -0.187101
H      -0.115990    1.181134   -1.572552
H       1.648349    1.567724   -0.053296
H       1.038480   -0.655516   -0.364538
H      -0.348208    0.717198    2.961649
H      -2.003396    0.227616    2.474389
H      -0.465137   -1.506213    4.310632
H      -1.323248   -3.500988    2.890951
H      -2.592936   -2.326552    2.421060
H      -0.389174   -2.800613    0.473555
