15

N      -0.265629    1.147073   -0.503860
C      -0.116652   -0.156371   -0.123457
C       1.316055   -0.669645   -0.061935
O       1.388310   -1.953794    0.474963
N      -1.027239   -0.989784    0.222222
C      -2.422304   -0.590854    0.269376
C      -2.951397   -0.037557   -0.990805
N      -3.310524    0.431844   -1.985050
H       0.539772    1.606849   -0.900023
H      -1.146690    1.448122   -0.894231
H       1.727616   -0.639680   -1.086162
H       1.911120    0.037980    0.537781
H       0.458999   -2.220242    0.592163
H      -3.027659   -1.463790    0.532348
H      -2.596731    0.162305    1.053215
