17

C      -0.388449    1.269668   -0.084928
C       0.045987   -0.183123   -0.025484
N       1.280940   -0.519275   -0.779081
C       2.066941   -0.649795    0.339564
N       3.288274   -0.680643    0.670090
C       0.840264   -0.605156    1.265812
O       0.949330    0.313567    2.316454
C       0.443919   -1.972849    1.812672
O      -0.179858   -2.798714    1.200754
H       0.421655    1.940338    0.212721
H      -0.709954    1.532147   -1.098449
H      -1.232595    1.438911    0.589929
H      -0.771932   -0.868196   -0.260848
H       1.556673   -0.202382   -1.697757
H       3.918615   -0.576666   -0.125747
H       1.885887    0.539482    2.393062
H       0.791516   -2.133513    2.855703
