19

O       0.634169    0.523102   -0.665133
C      -0.193157    0.391861    0.474235
C      -1.526766   -0.302395    0.161364
C      -1.412423   -1.784645   -0.217802
C      -2.685158   -2.382242    0.404312
C      -2.849389   -1.535264    1.667861
O      -2.339431   -0.236385    1.345719
C      -2.285708    0.504068   -0.900692
O      -2.543730    0.122537   -2.011483
H       0.868774   -0.357991   -0.973997
H       0.295496   -0.152626    1.296401
H      -0.391846    1.408740    0.827605
H      -1.370623   -1.914153   -1.300337
H      -0.515945   -2.225317    0.233722
H      -3.534030   -2.234219   -0.269887
H      -2.602222   -3.450084    0.618547
H      -3.889453   -1.425766    1.989910
H      -2.273824   -1.954640    2.505876
H      -2.622676    1.495864   -0.525975
