18

N      -0.040505    1.240251    0.348829
C      -0.008207    0.007137   -0.233154
O       1.002639   -0.447490   -0.743732
C      -1.291862   -0.759586   -0.183712
C      -1.561462   -1.721130   -1.333656
C      -1.191527   -2.258017   -0.002984
C       0.024414   -3.080884    0.406994
O      -0.802687   -3.882112    1.289719
C      -1.990674   -3.142477    0.948141
H       0.796137    1.799478    0.325318
H      -0.879178    1.635413    0.734548
H      -2.149633   -0.269862    0.269025
H      -2.588111   -1.819763   -1.671030
H      -0.802645   -1.744339   -2.108653
H       0.478853   -3.682052   -0.389029
H       0.811358   -2.546035    0.947469
H      -2.431223   -2.639230    1.819938
H      -2.754325   -3.777016    0.477745
