16

C      -0.045763   -1.169744    0.219929
C       0.015612    0.021754    0.073401
C       0.041520    1.440793   -0.133289
C      -0.975218    2.111309   -1.062370
N      -0.354587    3.326556   -1.629642
C      -0.037524    4.412555   -0.695614
C       1.018623    3.440197   -1.086264
C       1.259395    2.289109   -0.143838
O       0.398757    2.264823    0.996917
H      -0.089305   -2.221981    0.357826
H      -1.213073    1.429357   -1.884800
H      -1.905062    2.350181   -0.537079
H      -0.050824    5.401831   -1.144829
H      -0.401988    4.352738    0.324734
H       1.812998    3.697194   -1.780705
H       2.257496    1.888440    0.005959
