17

C       0.069618    0.911375   -1.253104
C      -0.003575   -0.001693   -0.047244
C       1.206734   -0.734077    0.409068
N       0.665393    0.386356    1.199936
C      -1.356690   -0.643469    0.158432
C      -1.963631   -0.777816    1.496686
O      -2.410166    0.226661    0.585921
C      -1.739201   -1.593005   -0.876271
N      -2.005664   -2.346556   -1.711094
H       1.078413    1.318566   -1.369452
H      -0.185819    0.373389   -2.171669
H      -0.632615    1.743949   -1.142948
H       1.113659   -1.708683    0.879702
H       2.123833   -0.587130   -0.154642
H       1.211948    1.230120    1.047616
H      -2.667992   -1.586745    1.679145
H      -1.382488   -0.416660    2.339904
