18

C      -0.033691    1.428993    0.040805
N      -0.002710   -0.020148   -0.005610
C      -0.136388   -0.735703    1.253603
C       0.014928   -0.673571   -1.203011
N       0.013086   -2.020659   -1.190252
C       0.047796   -2.639944   -2.364450
N       0.082050   -2.097467   -3.580704
C       0.075304   -0.755476   -3.582348
C       0.040201    0.015011   -2.438276
H       0.802069    1.867236   -0.516627
H      -0.969035    1.841365   -0.362746
H       0.054861    1.747434    1.080638
H      -1.105621   -0.527021    1.726112
H      -0.059278   -1.803008    1.059417
H       0.656334   -0.434199    1.948227
H       0.047031   -3.727920   -2.322137
H       0.096379   -0.275262   -4.558659
H       0.026289    1.093908   -2.503194
