14

N      -0.036348    1.333511    0.011432
C      -0.055536    0.068406    0.003944
O       1.063427   -0.751523   -0.006901
C       0.714758   -2.161853   -0.013515
C      -0.779164   -2.134151   -0.005452
C      -1.183523   -0.835226    0.004447
N      -2.551743   -0.867753    0.011500
C      -2.888304   -2.197344    0.005528
N      -1.834420   -2.998739   -0.004996
H       0.924008    1.679053    0.008453
H       1.150537   -2.621028   -0.907844
H       1.159919   -2.631696    0.870594
H      -3.180423   -0.081570    0.019453
H      -3.918456   -2.521642    0.009130
