15

O      -0.031349   -0.052881   -0.124764
C      -0.025018    1.148736   -0.062174
N       1.153940    1.908565    0.063104
C       2.407607    1.242882    0.085510
N       3.521855    1.769867    0.365362
C       3.522509    3.187612    0.711888
C       2.429942    3.988616   -0.007283
C       1.077378    3.323141    0.104503
O       0.021373    3.900238    0.180901
H      -0.915428    1.789845   -0.097400
H       2.317308    0.185458   -0.142717
H       3.403966    3.268620    1.801757
H       4.506677    3.602024    0.477556
H       2.340289    5.010718    0.365077
H       2.667866    4.046113   -1.078349
