12

N       0.135831    1.259976    0.139853
C      -0.008836   -0.079803    0.051561
N      -1.130617   -0.760768    0.020952
C      -0.716234   -2.070265   -0.009035
C       0.641537   -2.111467    0.000626
O       1.116169   -0.820237    0.039821
N       1.573353   -3.173723   -0.029575
O       1.093430   -4.307098   -0.060987
O       2.768159   -2.894262   -0.023246
H       1.025590    1.656391   -0.114903
H      -0.685656    1.806049   -0.061747
H      -1.401488   -2.901167   -0.039114
