20

C      -0.099237    1.578370   -0.015353
C       0.017517    0.061468    0.030540
C       1.159741   -0.560058   -0.816697
O       1.474857   -0.577903   -1.979484
N       1.738554   -1.110697    0.301922
C       2.917835   -1.915539    0.470564
C       0.749441   -0.586330    1.226437
C       1.023191   -0.025866    2.585655
C       0.193675   -1.294573    2.419531
H       0.857459    2.055948    0.217137
H      -0.403752    1.901243   -1.015189
H      -0.844771    1.943290    0.698920
H      -0.943795   -0.416587   -0.182329
H       3.355704   -2.064756   -0.519274
H       3.659123   -1.421831    1.111215
H       2.681735   -2.896169    0.902015
H       2.021363   -0.131100    2.998455
H       0.517028    0.888960    2.876359
H      -0.875325   -1.241356    2.598610
H       0.648779   -2.231735    2.723901
