18

C      -0.022389    1.515502    0.193506
C      -0.055509    0.034361    0.026644
N      -1.069738   -0.717226    0.184513
C      -0.631754   -2.095292   -0.078719
C      -1.375678   -2.746564   -1.273315
C      -0.356775   -2.725108   -2.384695
C       0.842704   -2.299959   -1.990949
C       0.854356   -1.939865   -0.530906
O       1.136262   -0.529552   -0.316942
H       0.714435    1.794240    0.953361
H       0.279319    1.995283   -0.742878
H      -1.007788    1.873945    0.488920
H      -0.752338   -2.688165    0.832822
H      -1.691846   -3.772394   -1.044584
H      -2.282555   -2.184818   -1.519816
H      -0.597924   -3.044644   -3.393274
H       1.723324   -2.207697   -2.615671
H       1.590917   -2.497056    0.054623
