16

O       0.197063    1.375351   -0.226052
C       0.091373   -0.003138   -0.135171
C       0.833602   -0.750157   -1.253191
C       0.368663   -2.215368   -1.101615
C      -0.885792   -2.125716   -0.235712
C      -1.288686   -0.743228   -0.005787
N      -0.750613   -1.597385    1.173414
C       0.348309   -0.659189    1.223786
O       1.014345   -0.348942    2.167138
H       0.325411    1.727659    0.663014
H       0.526880   -0.322663   -2.213275
H       1.914604   -0.624484   -1.156920
H       0.124000   -2.671517   -2.064883
H       1.124912   -2.847703   -0.626029
H      -1.613494   -2.929499   -0.265755
H      -2.273397   -0.300736    0.051587
