15

O      -0.067625   -0.012460   -0.306413
C      -0.083191    1.182879   -0.122853
C      -1.274791    2.144610   -0.054982
C      -0.635448    3.487533    0.181559
C       0.688268    3.326407    0.243105
N       1.046421    1.975018    0.065411
C       2.378711    1.422725    0.054385
C       3.098774    1.636158    1.317995
N       3.669732    1.830206    2.302992
H      -1.846901    2.082051   -0.987694
H      -1.951291    1.830346    0.748196
H      -1.165375    4.420592    0.291486
H       1.466374    4.057007    0.412332
H       2.259907    0.348822   -0.127571
H       2.980986    1.839229   -0.763046
