21

C       0.048453    1.501042   -0.004669
C      -0.091497   -0.016291    0.010213
C       0.032466   -0.597987    1.420341
O      -1.360628   -0.302577   -0.585599
C      -1.541273   -1.613412   -0.995370
C      -2.235960   -2.677109   -0.164765
C      -3.421137   -2.039089    0.555599
O      -3.933073   -1.469011   -0.676902
C      -2.887888   -2.087332   -1.418917
H       1.018546    1.803171    0.401020
H      -0.040665    1.883216   -1.024698
H      -0.739069    1.959282    0.601874
H       0.696153   -0.456425   -0.624497
H       1.015006   -0.361746    1.841825
H      -0.733590   -0.172426    2.076627
H      -0.079804   -1.685091    1.416259
H      -0.727515   -2.018717   -1.602613
H      -1.819117   -3.654950    0.040072
H      -4.131354   -2.767228    0.961511
H      -3.196554   -1.272299    1.304523
H      -3.136771   -2.492945   -2.394077
