14

O      -0.162465    0.018732    0.000935
C      -0.024637    1.224614    0.009119
C       1.231069    1.906784   -0.000247
C       2.285928    2.510180   -0.007770
C       3.501300    3.195038   -0.015975
C       4.813530    2.726314   -0.034814
C       5.669710    3.844335   -0.035435
C       4.872372    4.975836   -0.016937
N       3.572796    4.579255   -0.005358
H      -0.901698    1.905330    0.025116
H       5.092702    1.684682   -0.046596
H       6.748184    3.834498   -0.047888
H       5.134873    6.021776   -0.011320
H       2.769915    5.184801    0.008811
