14

O      -0.102193    1.397653    0.080770
C       0.010966    0.005088    0.050952
C       0.937068   -0.536382    1.158997
C       2.252834    0.095876    1.098112
N       3.269350    0.641413    1.035719
C      -1.355864   -0.693185   -0.067990
O      -0.971848   -1.256759   -1.363489
C       0.241538   -0.619276   -1.352554
O       1.081662   -0.609800   -2.189646
H       0.763224    1.781489   -0.113864
H       0.486425   -0.311530    2.132112
H       1.045242   -1.623273    1.079803
H      -1.575435   -1.484346    0.651283
H      -2.192023   -0.000989   -0.170398
