17

C       0.057144    1.423592   -0.062141
O      -0.060437    0.016497   -0.229095
C      -1.347907   -0.556054    0.004278
C      -2.275994   -0.306901   -1.205520
O      -1.620106   -0.648049   -2.403258
C      -1.057807   -2.075928    0.133895
O      -1.889763   -2.925206   -0.001967
C      -1.963188   -0.114428    1.254953
C      -2.485818    0.231013    2.281164
H       1.106142    1.661885   -0.248993
H      -0.565710    1.980260   -0.774584
H      -0.210868    1.728487    0.955188
H      -3.149981   -0.954544   -1.103495
H      -2.614715    0.739832   -1.196137
H      -0.729999   -0.279292   -2.344049
H       0.003239   -2.286879    0.380692
H      -2.951581    0.529836    3.188430
