19

C      -0.151040   -1.249113    0.030609
C      -0.103199   -0.046810    0.008255
C      -0.060945    1.406838   -0.010938
C      -0.160179    2.019357    1.448532
C       1.409308    2.126158    1.479464
C       1.334070    2.019940   -0.023187
C       1.634434    2.613487   -1.170660
C       0.515011    2.368698   -2.179911
C      -0.711771    2.030832   -1.274972
H      -0.186420   -2.310111    0.044262
H      -0.632558    3.004012    1.426897
H      -0.629272    1.391405    2.207733
H       1.860242    3.025405    1.904160
H       1.849090    1.244060    1.954968
H       2.486088    3.253363   -1.371489
H       0.329314    3.247723   -2.806015
H       0.748275    1.541604   -2.864115
H      -1.437646    1.373267   -1.758429
H      -1.223141    2.959123   -0.998333
