21

C      -0.191103    1.405376   -0.004417
O      -0.070554   -0.008343   -0.080607
C       0.657537   -0.525831   -1.206918
C       0.663521   -2.046760   -1.010406
C      -0.059695   -0.150097   -2.516769
O      -1.420181   -0.539910   -2.475338
C       2.112044   -0.004441   -1.206303
C       2.887681   -0.116012    0.093837
O       2.611723    0.434735   -2.216660
H       0.782113    1.911869   -0.059860
H      -0.837011    1.814740   -0.791663
H      -0.643005    1.622718    0.966139
H      -0.351217   -2.426698   -1.146716
H       1.314076   -2.525471   -1.748147
H       1.007862   -2.306369   -0.007038
H       0.049853    0.925659   -2.710423
H       0.409350   -0.669868   -3.355038
H      -1.735751   -0.339688   -1.585639
H       2.248254    0.040374    0.964546
H       3.301364   -1.128742    0.171250
H       3.719138    0.590264    0.082880
