14

O       0.099144    1.410007   -0.035635
C       0.027363   -0.009466    0.004563
C       0.614342   -0.569083    1.326903
C      -0.612462   -0.748980    2.191647
C      -1.733354   -0.712760    1.469094
C      -1.443389   -0.502591    0.000441
H      -0.384075    1.740800    0.730548
H       0.583323   -0.343259   -0.874626
H       1.125028   -1.529435    1.168529
H       1.358956    0.121852    1.736650
H      -0.560921   -0.918441    3.261472
H      -2.735970   -0.848158    1.859382
H      -2.091450    0.233344   -0.487565
H      -1.553387   -1.442888   -0.558041
