16

C      -0.074913    1.583848    0.011843
C       0.045889    0.066082    0.015973
O      -1.228758   -0.539129   -0.143715
C       1.135616   -0.621187   -0.866382
N       1.688572   -1.390581    0.306784
C       2.173493   -0.365903    1.246384
C       0.722836   -0.627555    1.198182
H       0.885272    2.071934    0.199103
H      -0.437486    1.936764   -0.962315
H      -0.787393    1.907211    0.776853
H      -1.623046   -0.191197   -0.950996
H       0.695297   -1.306702   -1.592829
H       1.875597    0.020742   -1.358100
H       2.726529   -0.784337    2.081989
H       2.585077    0.562802    0.855783
H       0.173109   -1.112604    1.998101
