13

O      -0.097329    0.085497   -0.827770
C      -0.068792    1.214310   -0.423180
O      -1.124771    2.076660   -0.346558
N      -0.702611    3.322443    0.189700
C       0.559049    3.172942    0.407583
N       1.018180    1.933408    0.064862
C       2.365619    1.381917    0.140054
C       3.029844    1.692968    1.399187
C       3.585143    1.973327    2.425902
H       1.182115    3.945816    0.831603
H       2.246190    0.301350    0.005288
H       2.966513    1.746056   -0.702870
H       4.076812    2.203099    3.339521
