12

N      -0.301783    1.351907    0.139403
C       0.011074    0.149602   -0.039499
O       1.322521   -0.274105   -0.222714
C       1.627277   -1.274194   -1.119729
O       2.606303   -1.936278   -0.978838
N       0.799689   -1.364547   -2.259628
C      -0.443604   -1.616290   -2.149711
C      -1.161865   -1.686296   -0.851608
N      -0.940601   -0.879651    0.107481
H       0.506809    1.958277    0.004306
H      -1.020709   -1.767795   -3.064736
H      -1.936689   -2.444229   -0.723094
