20

C       0.146380    0.963073    0.488898
O      -0.318201    0.070298   -0.515729
C      -1.229712   -0.837577   -0.112020
N      -1.669930   -1.699401   -0.915537
C      -2.675273   -2.623282   -0.468848
C      -2.352560   -4.151241   -0.473079
C      -1.534296   -3.933497    0.831602
C      -2.843135   -3.102385    1.020526
C      -3.604268   -4.323484    0.432882
H       0.830358    1.653524   -0.005898
H      -0.677965    1.533655    0.934198
H       0.686111    0.430852    1.281790
H      -1.532965   -0.738715    0.940695
H      -3.616436   -2.379529   -0.975957
H      -2.071117   -4.751343   -1.338889
H      -1.422353   -4.805082    1.482362
H      -0.596244   -3.384851    0.740515
H      -3.136965   -2.513822    1.892020
H      -4.579416   -4.128790   -0.023207
H      -3.624955   -5.219322    1.057747
