19

C       0.664057    1.655806    0.746327
C       0.211735    0.258483    0.357490
C       0.810195   -0.539772   -0.835101
C       2.110228   -0.804930   -0.042600
C       0.888147   -1.048783    0.879670
C       0.816849   -1.703765    2.240195
C       1.491792   -0.922832    3.269625
C       2.055285   -0.266604    4.103769
O       0.239645   -1.773738   -0.241127
H       1.748780    1.782520    0.715959
H       0.221613    2.397700    0.072523
H       0.333269    1.893037    1.762286
H      -0.877831    0.162702    0.380768
H       0.671237   -0.394156   -1.906396
H       2.643432   -1.710457   -0.335175
H       2.781366    0.025992    0.177652
H      -0.239004   -1.848308    2.501823
H       1.262145   -2.704190    2.169138
H       2.550920    0.305344    4.848561
