18

O      -0.172132    1.356941   -0.383414
C      -0.087161   -0.024668   -0.162241
C       0.328606   -0.447846    1.266614
O       1.229435   -0.146869    2.006759
N      -0.790810   -1.226308    1.388595
C      -1.424250   -0.790871    0.139289
C      -2.739353    0.018577    0.104282
C      -3.078374   -0.697490   -1.234055
C      -2.011456   -1.776276   -0.892462
H       0.409656    1.786563    0.254534
H       0.499526   -0.517031   -0.949045
H      -1.165899   -1.718923    2.187544
H      -3.415324   -0.278307    0.912112
H      -2.632760    1.104362    0.097941
H      -4.105049   -1.040569   -1.370759
H      -2.790745   -0.095994   -2.099507
H      -1.347409   -2.126706   -1.687392
H      -2.457725   -2.646914   -0.401607
