16

C      -0.027210    1.490719    0.085317
C       0.011295    0.003329   -0.036800
C      -0.008366   -0.798977   -1.164620
C       0.050215   -2.152715   -0.744832
N       0.123163   -3.272995   -1.560145
C       0.100375   -2.143020    0.648884
N       0.081033   -0.807721    1.051938
C       0.150517   -3.219757    1.544094
N       0.184601   -4.129277    2.267890
H       0.869495    1.881629    0.580521
H      -0.086064    1.945960   -0.905193
H      -0.895718    1.830101    0.662175
H      -0.049146   -0.446456   -2.184069
H      -0.371418   -3.183548   -2.435862
H      -0.106980   -4.141313   -1.096358
H       0.106425   -0.506348    2.010425
