19

C       0.158443    1.617847    0.107358
C       0.160200    0.097031    0.023001
C       0.835598   -0.638092   -1.142530
C       1.250640   -1.778998   -0.257410
C       2.319651   -0.835384   -0.788055
C       2.507530   -0.292398    0.600742
C       3.704193   -0.319292    1.433606
O       3.120308    0.923834    0.992094
C       1.089860   -0.758176    0.945518
H       1.162121    2.033095   -0.004672
H      -0.478695    2.042083   -0.676910
H      -0.237942    1.954851    1.071726
H      -0.860985   -0.289528    0.120274
H       0.515112   -0.684499   -2.176250
H       1.157222   -2.851207   -0.333627
H       3.067474   -1.033852   -1.544133
H       3.624704   -0.516163    2.502407
H       4.671369   -0.557887    0.992074
H       0.808864   -0.990493    1.970689
