19

O      -1.192454    0.637715   -0.466972
C      -0.629739    1.667035   -0.244807
O       0.686510    1.736621    0.027112
C       1.268784    3.011117    0.279731
C       2.101518    3.119822    1.579649
C       3.170994    3.848583    0.751519
C       3.662213    5.245827    0.999062
C       4.615679    4.071513    1.065810
C       2.530289    3.346513   -0.551607
H      -1.121381    2.660171   -0.238437
H       0.502244    3.790412    0.208391
H       1.649717    3.648379    2.422864
H       2.428169    2.127796    1.906212
H       3.742078    5.919990    0.151904
H       3.384574    5.730599    1.929909
H       4.980437    3.764301    2.040852
H       5.337648    3.953546    0.263943
H       2.997050    2.428523   -0.921625
H       2.414387    4.052553   -1.377787
