21

C      -0.247132    1.615652   -0.080537
C      -0.095226    0.091484   -0.105008
C       0.771639   -0.441713   -1.261342
C       0.834190   -1.982423   -1.308965
C       0.842854   -2.276442   -2.815765
C      -0.038924   -1.146411   -3.352278
O       0.232303   -0.016281   -2.523411
C       2.178734    0.160848   -1.167925
O       3.041529   -0.241262   -0.430728
H       0.708409    2.117161    0.106698
H      -0.639159    1.977273   -1.034697
H      -0.936755    1.920224    0.711946
H       0.344104   -0.265747    0.834082
H      -1.082153   -0.376802   -0.197972
H       1.711645   -2.353089   -0.776568
H      -0.058575   -2.406220   -0.837167
H       1.857525   -2.190897   -3.219309
H       0.460985   -3.268821   -3.066202
H       0.178131   -0.869262   -4.388333
H      -1.104362   -1.415221   -3.286627
H       2.340049    1.016814   -1.859402
