15

N       0.088220   -1.137503    0.018216
C       0.061388    0.018604    0.030463
C       0.051686    1.457532    0.065622
C       0.486581    2.245345    1.278017
C       1.596603    1.518601    2.043321
C       2.479034    1.521082    0.751984
C       1.350890    2.258468    0.005732
C       1.524501    3.287079   -0.967578
N       1.677747    4.126816   -1.749067
H      -0.761987    1.910721   -0.491557
H      -0.148604    3.036734    1.655427
H       2.024610    2.133333    2.835725
H       1.325370    0.542783    2.452039
H       3.369125    2.141618    0.855082
H       2.757601    0.551907    0.333533
