20

C      -0.020240    1.507821    0.070985
C       0.020341   -0.021044    0.006862
C       0.730743   -0.542803   -1.246428
C       0.783231   -2.065950   -1.345673
C       1.427596   -2.565363   -2.634366
O       1.556432   -2.552815   -0.223447
C       1.101051   -3.618311    0.455452
O       1.699355   -4.116801    1.361889
H       0.990638    1.929863    0.080202
H      -0.546747    1.929474   -0.792568
H      -0.532211    1.852925    0.974239
H       0.526889   -0.414645    0.894740
H      -1.004172   -0.416783    0.033746
H       0.225375   -0.165785   -2.144819
H       1.757942   -0.157870   -1.281154
H      -0.235948   -2.470494   -1.260080
H       2.456236   -2.201118   -2.712446
H       1.449373   -3.658697   -2.662577
H       0.866329   -2.210685   -3.504156
H       0.116408   -3.972922    0.090040
