19

C      -0.154752    1.515892   -0.059362
C      -0.022906   -0.000749   -0.007204
C      -1.355086   -0.774855   -0.050846
C      -1.042838   -2.054808    0.738682
O      -0.094340   -1.674824    1.733723
C       0.744042   -0.677050    1.188892
C       1.859277   -1.185310    0.220400
C       1.062275   -0.581463   -0.945270
O       1.212564   -0.545737   -2.132842
H       0.815318    2.010008    0.058801
H      -0.569503    1.831489   -1.021916
H      -0.817112    1.875159    0.735388
H      -2.128561   -0.189515    0.457507
H      -1.692181   -0.976617   -1.070824
H      -1.909151   -2.479513    1.251605
H      -0.626205   -2.831345    0.077886
H       1.087465   -0.038723    2.004653
H       2.836060   -0.710778    0.358252
H       2.001786   -2.269295    0.189336
