21

C      -0.080785    1.577818    0.014462
C       0.060887    0.051189    0.053060
N       0.669613   -0.525223   -1.139425
C       2.078134   -0.849417   -1.154155
C       3.082083   -0.215361   -0.232046
C       2.732265   -1.685117   -0.086864
C      -0.002639   -0.661163   -2.339284
N      -1.346050   -0.293601   -2.329855
O       0.534576   -1.035097   -3.369738
H       0.896727    2.052308   -0.107950
H      -0.714945    1.886973   -0.819795
H      -0.527388    1.942670    0.945497
H       0.670036   -0.241973    0.912166
H      -0.914683   -0.416487    0.236865
H       2.390964   -1.027337   -2.173110
H       4.045929    0.058688   -0.647066
H       2.737997    0.453769    0.548851
H       2.144417   -1.969363    0.779878
H       3.454011   -2.433944   -0.394058
H      -1.882693   -0.411770   -1.485287
H      -1.813662   -0.620390   -3.161902
