18

N      -0.066075    1.294024   -0.327354
C      -0.032628    0.061826   -0.052613
O       1.113520   -0.641971    0.216681
C       0.822622   -2.016459    0.488883
C       0.453820   -2.327400    1.967719
C      -1.044872   -2.431052    1.579703
C      -1.776914   -1.067289    1.492186
C      -1.228631   -0.850874    0.037802
C      -0.646299   -2.287301    0.066266
H       0.875336    1.690463   -0.308732
H       1.624347   -2.612446    0.051954
H       0.865762   -3.288809    2.286212
H       0.734591   -1.563263    2.697643
H      -1.605847   -3.273124    1.983612
H      -2.862777   -1.184552    1.483731
H      -1.514066   -0.307056    2.232816
H      -1.978181   -0.591023   -0.706536
H      -0.869245   -2.996745   -0.728042
