21

C      -0.121834    1.474284   -0.044418
C       0.106940   -0.020695   -0.081864
C       1.525845   -0.581731   -0.067236
C       0.642419   -0.723613    1.129632
O       0.919536   -0.014123    2.339598
C       0.502761   -1.152279    3.133318
C       0.152223   -1.966989    1.869573
C      -1.309738   -2.330931    1.699271
O      -1.610719   -3.332933    2.659512
H       0.564863    1.952821    0.658892
H       0.026809    1.923959   -1.032012
H      -1.140688    1.709070    0.282583
H      -0.609198   -0.581035   -0.679703
H       1.751492   -1.460379   -0.663833
H       2.339108    0.132674    0.017498
H       1.325530   -1.543231    3.741226
H      -0.346100   -0.910730    3.783020
H       0.771472   -2.856136    1.726564
H      -1.930952   -1.432912    1.845184
H      -1.489270   -2.691714    0.673387
H      -2.545573   -3.547376    2.591120
