19

C      -0.024374    1.058703   -0.549484
O      -0.389655    0.100627    0.434064
C      -1.197767   -0.894164    0.003459
N      -1.571059   -1.786611    0.804928
C      -2.438234   -2.866173    0.367640
C      -2.897645   -2.905863   -1.095646
C      -3.798043   -4.102183   -1.375047
O      -4.171148   -4.056227   -2.744439
H       0.619178    1.783406   -0.049085
H       0.531523    0.598620   -1.376140
H      -0.901886    1.579408   -0.953090
H      -1.461958   -0.821674   -1.059520
H      -1.922466   -3.806343    0.609576
H      -3.320911   -2.850284    1.022693
H      -3.449702   -1.993957   -1.353810
H      -2.035599   -2.960705   -1.771557
H      -3.261178   -5.035885   -1.139992
H      -4.683699   -4.063385   -0.719775
H      -4.740170   -4.809838   -2.926192
