18

C      -0.236509    1.502141   -0.018339
C      -0.107459    0.009472    0.146214
O       1.172611   -0.581496   -0.108878
C       0.642831   -0.665959    1.219191
C       1.401518    0.059553    2.280375
N       0.854547   -0.035583    3.637532
C       2.157084   -0.678268    3.348991
C       2.219437   -2.112591    3.412630
C       2.304943   -3.310614    3.462083
H       0.603070    2.039614    0.427155
H      -0.274988    1.761411   -1.081462
H      -1.163287    1.855741    0.446244
H      -0.935863   -0.558886   -0.282775
H       0.315639   -1.661580    1.517657
H       1.849573    0.998452    1.965686
H       1.003804    0.831329    4.146824
H       3.050016   -0.174765    3.714142
H       2.372993   -4.369427    3.506478
