17

N      -0.400344    1.141278    0.618942
C      -0.231644   -0.070148    0.341248
O       0.930940   -0.776656    0.044201
C       0.141125   -1.950779   -0.303448
C      -0.564993   -2.429579    0.913108
C      -1.137202   -1.250914    0.112634
N      -2.440832   -1.320602   -0.426956
C      -3.470408   -0.459944    0.168323
C      -2.944605   -0.179992   -1.196221
H       0.486696    1.647671    0.640625
H       0.420314   -2.493922   -1.194620
H      -1.159519   -3.329171    0.788246
H      -0.116455   -2.283759    1.890719
H      -4.441659   -0.927546    0.300861
H      -3.163242    0.220799    0.957218
H      -2.302198    0.688917   -1.303889
H      -3.526808   -0.445912   -2.073528
