16

O       0.125811    1.396966    0.142007
C       0.019807   -0.001940    0.048712
C      -1.437994   -0.561140   -0.105533
C      -1.343028   -1.246996   -1.480643
C      -1.173433   -0.182900   -2.579069
O       0.164763    0.294726   -2.319196
C       0.638896   -0.555221   -1.259178
O      -0.001380   -1.786639   -1.455909
H       0.073545    1.721183   -0.768291
H       0.514441   -0.422421    0.927950
H      -1.676073   -1.291433    0.670536
H      -2.170426    0.247940   -0.063794
H      -2.060727   -2.037025   -1.694696
H      -1.217052   -0.611988   -3.585697
H      -1.888948    0.641311   -2.500283
H       1.722648   -0.643600   -1.317256
