23

C       0.049835    1.489177   -0.241672
C       0.018456   -0.010610    0.010973
C      -1.209260   -0.654399   -0.614781
C       1.322311   -0.778936   -0.015844
C       0.605279   -0.568224    1.307971
C       1.225089    0.376614    2.328723
C      -0.042359   -1.775588    1.982640
C       0.977368   -2.648239    2.686556
O       0.885924   -3.046223    3.819413
H       0.962827    1.965528    0.118790
H      -0.017202    1.687959   -1.317575
H      -0.800689    1.989458    0.236748
H      -1.265645   -0.391807   -1.677450
H      -1.201112   -1.744971   -0.557771
H      -2.132189   -0.299646   -0.140508
H       1.316845   -1.772523   -0.454581
H       2.244515   -0.231610   -0.185856
H       1.803006    1.177708    1.865700
H       0.455390    0.836993    2.959528
H       1.904925   -0.166542    2.995392
H      -0.798966   -1.474191    2.715120
H      -0.534522   -2.417111    1.242599
H       1.856032   -2.916726    2.054366
