21

C      -0.310313    1.445382   -0.041633
C       0.070771   -0.046112    0.013291
C       0.772407   -0.522874   -1.225746
C       2.068811   -0.820847   -1.356766
C       2.449240   -1.265270   -2.748191
C       1.172046   -0.979568   -3.577295
C       0.077382   -0.736456   -2.535964
C      -1.294354   -1.260823   -2.661899
O      -1.018077    0.119949   -2.906125
H       0.584169    2.067859   -0.144514
H      -0.961530    1.644061   -0.895189
H      -0.829427    1.744656    0.874424
H       0.716005   -0.230400    0.879504
H      -0.838639   -0.639493    0.176194
H       2.788566   -0.782608   -0.545163
H       3.328138   -0.734608   -3.131902
H       2.708972   -2.332333   -2.760751
H       1.289012   -0.063333   -4.164424
H       0.922301   -1.783848   -4.273333
H      -1.556852   -1.848100   -3.541999
H      -1.893901   -1.470153   -1.776847
