18

O      -0.174006    1.578333    0.402543
C      -0.438403    0.283949    0.853065
C      -1.203440   -0.518974   -0.182838
O      -1.464110   -0.008666   -1.258337
C      -1.616695   -1.929078    0.124268
C      -0.916657   -2.676475    1.238659
O       0.453107   -2.886936    0.942822
C      -3.028385   -2.270138   -0.250753
N      -1.921123   -2.764595   -1.058193
H      -0.536230    1.616156   -0.496505
H       0.486621   -0.271200    1.076974
H      -1.025328    0.301618    1.786818
H      -0.945126   -2.110894    2.175408
H      -1.443661   -3.625717    1.407821
H       0.482074   -3.386084    0.117769
H      -3.553093   -3.018487    0.337019
H      -3.641844   -1.467399   -0.648885
H      -1.831670   -2.166485   -1.880210
