19

C       0.523285   -0.897674    1.312939
C       0.010767   -0.142879    0.080497
C       0.770538   -0.399612   -1.236196
C       2.258783    0.025611   -1.178041
C       2.431312    1.437541   -0.845302
N       2.552882    2.556256   -0.582878
C       0.711923   -1.876339   -1.699779
C      -0.654873   -2.357074   -1.886305
N      -1.741120   -2.723417   -2.031320
H       0.464846   -1.984131    1.189806
H       1.558505   -0.639094    1.558741
H      -0.085177   -0.642059    2.184735
H      -1.041873   -0.395695   -0.085987
H       0.039422    0.933960    0.278690
H       0.289723    0.204671   -2.013539
H       2.802003   -0.573997   -0.438746
H       2.739841   -0.158920   -2.145566
H       1.247998   -1.993283   -2.648737
H       1.212955   -2.527774   -0.974677
