15

N       0.050330    1.328804   -0.205876
C      -0.053601   -0.027656   -0.019454
N      -1.199269   -0.586115   -0.192127
C      -1.477869   -1.936891    0.038670
N      -2.608099   -2.341824    0.480475
C      -0.499778   -2.955267   -0.386958
C       0.839189   -2.867800   -0.294593
N       1.598744   -1.861938    0.286813
C       1.212545   -0.654908    0.439552
H       0.952102    1.725956   -0.411757
H      -0.742739    1.770346   -0.646022
H      -3.193441   -1.529653    0.691376
H      -0.934404   -3.884264   -0.743439
H       1.441402   -3.715828   -0.609095
H       1.915716    0.027719    0.925149
