14

N      -0.184466    1.338028   -0.174108
C      -0.009452    0.102828    0.069047
C      -1.173490   -0.842575   -0.116268
O      -1.171854   -1.984530    0.753980
C      -0.018919   -2.606221    1.050977
O      -0.012375   -3.697845    1.547101
C       1.282109   -1.851870    0.805538
N       2.420954   -2.371508    1.011778
N       1.169647   -0.526200    0.420313
H       0.680980    1.874932   -0.091657
H      -2.100979   -0.306848    0.075798
H      -1.183537   -1.197990   -1.154275
H       2.286188   -3.331351    1.334905
H       2.032253    0.003326    0.430213
