21

O      -0.078089    1.457985    0.037459
C      -0.006119    0.038879   -0.000988
C       0.706519   -0.584108    1.228348
C       0.030824   -1.937815    1.431054
C       0.781992   -3.225610    1.194569
C       0.362524   -2.833658    2.593554
C      -1.371852   -1.788869    0.895306
C      -2.146154   -0.563768    1.317023
C      -1.398718   -0.564055    0.006617
H       0.816903    1.802321   -0.044639
H       0.501954   -0.285651   -0.923062
H       1.788909   -0.667793    1.090668
H       0.537647    0.075177    2.087532
H       0.257108   -4.046317    0.715628
H       1.835846   -3.166214    0.941270
H       1.133586   -2.511857    3.286438
H      -0.446200   -3.388772    3.057723
H      -1.921183   -2.687537    0.634679
H      -3.227480   -0.620419    1.257860
H      -1.781311    0.045563    2.136354
H      -1.967195   -0.540260   -0.915771
