17

O      -0.136643    1.442389   -0.019056
C       0.037680    0.078534    0.016600
C      -0.871882   -0.794577    0.838589
C       0.620774   -0.897537    1.016003
O       1.178459   -1.706748   -0.030699
C       0.736931   -0.773738   -1.040566
C       0.088128   -1.298651   -2.329560
O       1.048367   -0.585879   -3.140628
C       1.801835   -0.182245   -1.982240
H       0.727355    1.864169   -0.090255
H      -1.384766   -0.245023    1.622418
H      -1.427975   -1.620007    0.401745
H       1.167852   -0.811004    1.946138
H       0.168338   -2.386277   -2.447168
H      -0.941853   -0.977198   -2.523353
H       1.952693    0.904958   -1.948542
H       2.771123   -0.690414   -1.904893
