25

C      -0.107274    1.529545   -0.125356
C       0.027947    0.028424    0.016183
C       1.358414   -0.665083   -0.181450
C       0.703145   -0.652087    1.185073
C       1.355918    0.151322    2.301671
C       2.393265   -0.693903    3.060784
C       1.780807   -2.000490    3.584706
C       1.130305   -2.803362    2.448730
C       0.097496   -1.954964    1.690188
H       0.788854    2.057962    0.211526
H      -0.269804    1.803841   -1.173825
H      -0.956119    1.913796    0.451999
H      -0.830498   -0.516087   -0.373519
H       1.387739   -1.594288   -0.742222
H       2.230790   -0.034425   -0.328412
H       1.830419    1.055931    1.909292
H       0.581422    0.486344    3.007443
H       3.225333   -0.930969    2.384158
H       2.816649   -0.112521    3.887861
H       2.544589   -2.603301    4.089103
H       1.019931   -1.764550    4.342412
H       1.908953   -3.133706    1.748054
H       0.657502   -3.710039    2.843374
H      -0.742005   -1.724462    2.362897
H      -0.322677   -2.524619    0.853035
