19

C       0.000679    1.505063   -0.034222
C       0.032804   -0.017492    0.003240
O       0.610958   -0.458065   -1.214249
C       0.784092   -1.864004   -1.269410
C       1.890754   -2.329295   -0.317640
O       3.178927   -2.018141   -0.811263
C       1.689984   -1.703820    1.063576
O       2.216557   -0.371096    1.172326
C       0.797408   -0.542899    1.205875
H       1.020537    1.897672   -0.059061
H      -0.528539    1.845398   -0.927533
H      -0.508508    1.903357    0.848415
H      -0.997810   -0.411295    0.082970
H      -0.162096   -2.379927   -1.030739
H       1.065797   -2.103729   -2.297930
H       1.846236   -3.421028   -0.232297
H       3.292747   -1.070968   -0.656491
H       1.899855   -2.329359    1.929525
H       0.338414   -0.338055    2.174020
