21

C      -1.090872    0.955288    0.120778
C       0.076649   -0.017622    0.154907
C       1.186794    0.094693   -0.928903
C       2.241245   -0.211895    0.161726
C       1.183985    0.169210    1.231065
C       2.842974   -1.651952    0.244893
C       4.224489   -1.009997    0.450330
O       5.299754   -1.436549    0.755908
C       3.671682    0.396921    0.176018
H      -0.736618    1.992043    0.084901
H      -1.722952    0.788789   -0.758738
H      -1.723571    0.850234    1.009285
H      -0.297649   -1.047004    0.189704
H       1.139109   -0.579237   -1.789537
H       1.278705    1.123392   -1.295828
H       1.276045    1.220874    1.525285
H       1.133363   -0.442722    2.136490
H       2.499137   -2.299334    1.057378
H       2.788082   -2.216096   -0.693315
H       3.999468    0.787552   -0.794516
H       3.889468    1.148976    0.940843
