18

C      -0.081907    1.589413   -0.098813
C       0.057326    0.087404    0.037635
C       1.341548   -0.691907   -0.211695
C       2.621989    0.072580   -0.098896
C       2.829454    0.513445    1.142670
C       1.729091    0.071547    2.097212
O       1.194905    1.117104    2.902430
C       0.731966   -0.648376    1.178765
H       0.850728    2.116236    0.119970
H      -0.368998    1.855257   -1.122258
H      -0.863831    1.974096    0.566307
H      -0.824479   -0.443098   -0.315960
H       1.299803   -1.577383   -0.836680
H       3.266633    0.261016   -0.950857
H       3.651760    1.135754    1.477428
H       2.126831   -0.640917    2.831393
H       0.818637    1.776387    2.311164
H       0.210768   -1.506435    1.586259
