13

O       0.029101    1.370799   -0.220350
C       1.297525    0.776668    0.036705
C       0.051995   -0.028409    0.039668
C       0.455212   -0.739735   -1.281683
N      -0.264399   -0.326702   -2.478732
C       0.448880    0.589357   -2.994222
O       1.659831    0.918630   -2.455361
C       1.766722    0.114545   -1.274843
H       1.889458    1.184858    0.847546
H      -0.554771   -0.395844    0.858639
H       0.551362   -1.823225   -1.192558
H       0.200537    1.153025   -3.886307
H       2.737082   -0.381262   -1.244269
