21

C       0.013761    1.522086    0.010158
C       0.024121    0.065809    0.002208
C       0.044438   -1.138209   -0.004560
C       0.030830   -2.597184   -0.012380
C      -1.392964   -3.189700   -0.001692
C      -1.390390   -4.719970   -0.010060
C      -2.815127   -5.310385    0.000695
C      -2.828832   -6.768143   -0.007046
C      -2.810539   -7.970071   -0.013977
H       1.031652    1.927791    0.002506
H      -0.507189    1.923307   -0.866421
H      -0.490106    1.913796    0.900908
H       0.568663   -2.967546   -0.895725
H       0.585777   -2.977092    0.856201
H      -1.924927   -2.820002    0.883266
H      -1.942082   -2.810434   -0.872001
H      -0.859319   -5.090453   -0.895037
H      -0.842115   -5.100022    0.860247
H      -3.354291   -4.944638    0.884561
H      -3.371470   -4.935109   -0.868414
H      -2.807141   -9.031660   -0.020218
