19

C      -3.392988    0.218242    1.528110
O      -2.764636   -0.981605    1.139706
C      -1.988208   -0.841542   -0.031227
C      -1.265891   -2.149650   -0.269993
C      -0.300543   -2.587617    0.827071
C       0.781894   -1.635006    1.052473
C       1.666132   -0.841691    1.233917
C      -1.878366   -3.162154   -1.138072
O      -0.811558   -2.330713   -1.610331
H      -3.958276    0.010471    2.439638
H      -2.659673    1.012843    1.735209
H      -4.086718    0.583615    0.754703
H      -2.615051   -0.606065   -0.905301
H      -1.251902   -0.030117    0.083686
H      -0.876355   -2.715795    1.751262
H       0.115788   -3.565220    0.560863
H       2.455560   -0.149971    1.393906
H      -1.624812   -4.212757   -1.004531
H      -2.854011   -2.972150   -1.582321
