14

O      -0.088057   -0.066371    0.004348
C       0.003976    1.148899    0.009264
N      -1.159381    1.944796    0.029162
C      -1.199217    3.316471    0.036526
C      -0.023937    4.020552    0.023881
C       1.199170    3.297707    0.003447
C       1.225003    1.935653   -0.003690
C      -2.480787    3.927854    0.057174
C      -3.576832    4.425158    0.074693
H      -2.026563    1.425080    0.038482
H      -0.047495    5.100558    0.029572
H       2.131841    3.853612   -0.006637
H       2.151616    1.375715   -0.019262
H      -4.540238    4.872870    0.090120
