15

O       0.089107    1.414673   -0.045162
C       0.070082    0.052640   -0.043751
C       0.037416   -0.753819   -1.161306
C       0.007911   -0.827461   -2.659189
C      -0.017373   -2.336646   -2.883082
C      -0.003979   -2.978269   -1.707460
N       0.028870   -2.032315   -0.673510
N       0.053036   -2.130055    0.657176
C       0.078364   -0.849609    1.053251
H       0.110887    1.722695    0.865742
H      -0.872269   -0.335393   -3.092976
H       0.884320   -0.359834   -3.126358
H      -0.042384   -2.801867   -3.856678
H      -0.014081   -4.030142   -1.467655
H       0.101806   -0.610603    2.107450
