27

C       0.023560    1.660562   -0.165988
C       0.058841    0.134245   -0.038979
C      -1.343344   -0.488983   -0.077265
C      -1.422739   -2.017203    0.105824
C      -0.673106   -2.747474   -1.025252
C      -0.913853   -2.486515    1.491840
C      -1.597459   -3.849187    1.753400
C      -2.883796   -3.853659    0.876059
C      -2.897341   -2.490206    0.149669
H       1.030785    2.088402   -0.139734
H      -0.444753    1.968662   -1.107684
H      -0.551889    2.112669    0.649753
H       0.675924   -0.278303   -0.845912
H       0.558596   -0.139792    0.898597
H      -1.953352   -0.018759    0.707135
H      -1.822318   -0.221793   -1.030435
H       0.400128   -2.535494   -1.002307
H      -0.790597   -3.833172   -0.951852
H      -1.054353   -2.441716   -2.006265
H       0.177246   -2.549356    1.546085
H      -1.229113   -1.758642    2.249949
H      -0.937088   -4.674476    1.470590
H      -1.821583   -3.985905    2.814969
H      -2.854890   -4.677767    0.156900
H      -3.789227   -3.998491    1.471882
H      -3.485312   -1.765686    0.726554
H      -3.348962   -2.543691   -0.846541
