19

C       0.063797    1.508256    0.237313
O       1.408022    1.575381   -0.311119
C       1.394189    0.175896   -0.594042
C       2.028766   -0.350818   -1.858459
C       2.221074   -1.833391   -1.497502
O       2.507587   -1.876746   -0.095341
C       1.877233   -0.781148    0.539152
C       0.391635   -0.989904    0.983791
C      -0.074648    0.008752   -0.105721
H       0.041496    1.759103    1.305407
H      -0.612619    2.178751   -0.304223
H       1.422583   -0.205290   -2.756066
H       2.994121    0.147610   -2.003091
H       1.307207   -2.405476   -1.722930
H       3.053973   -2.309288   -2.021159
H       2.552775   -0.367493    1.292275
H       0.058237   -2.015354    0.806766
H       0.159162   -0.717653    2.017101
H      -0.905890   -0.270415   -0.753277
