22

C       0.105932    1.455127   -0.461253
C      -0.009209    0.094978    0.239108
C      -1.412738   -0.481698    0.212692
C      -2.461475    0.280453    1.011188
O      -3.716348   -0.374801    1.029764
C      -3.614688   -1.666896    1.610270
C      -2.831488   -2.629269    0.710143
C      -1.631890   -1.950043    0.062765
N      -1.839488   -1.035663   -1.082324
H       1.147289    1.789028   -0.495049
H      -0.262054    1.382375   -1.489087
H      -0.469766    2.232638    0.051566
H       0.659090   -0.618944   -0.254012
H       0.329838    0.175344    1.280705
H      -2.096839    0.435945    2.041565
H      -2.644026    1.265110    0.568190
H      -3.124021   -1.586379    2.594120
H      -4.638292   -2.015717    1.772690
H      -2.497027   -3.486697    1.304953
H      -3.485381   -3.031472   -0.073931
H      -0.754228   -2.581657   -0.060740
H      -2.841686   -0.880068   -1.188384
