20

C      -0.017618    1.422776   -0.305003
C       0.082349   -0.014184    0.246333
C       0.732513   -0.038743    1.561037
N       1.229675   -0.058370    2.604238
C      -1.299713   -0.651911    0.347125
O      -1.902975   -1.029000   -0.887059
C      -1.611933   -2.067362    0.077817
C      -0.557489   -3.070173   -0.336826
C      -2.838186   -2.668844    0.731245
H       0.973060    1.870885   -0.409895
H      -0.500793    1.393208   -1.284451
H      -0.612264    2.054540    0.360643
H       0.696940   -0.607199   -0.437264
H      -1.963819   -0.114594    1.028481
H       0.257858   -2.607197   -0.894602
H      -0.139938   -3.574001    0.541043
H      -1.006390   -3.834906   -0.979344
H      -3.316082   -3.385802    0.055264
H      -2.564971   -3.201680    1.648026
H      -3.567852   -1.895203    0.981260
