16

O      -0.221729    0.258736    0.445081
C      -0.016877    1.248398   -0.229880
N       1.203835    1.704060   -0.594663
C       2.441258    1.068565   -0.171088
C       3.507768    2.102455    0.026155
C       4.493400    2.168682    0.974578
N       5.213206    3.305944    0.675061
C       4.636118    3.874960   -0.417415
N       3.607739    3.174549   -0.836858
H      -0.830021    1.891640   -0.622207
H       1.295924    2.552546   -1.132729
H       2.240119    0.516236    0.749931
H       2.761691    0.330760   -0.921504
H       4.743338    1.536495    1.809997
H       6.008754    3.655805    1.182066
H       5.004018    4.790130   -0.856341
