19

C       0.207114    1.549723    0.077023
C       0.022788    0.042985   -0.004773
C       0.636601   -0.578318   -1.293604
N       1.127436   -1.957399   -1.099372
C       0.240510   -2.617105   -0.066075
C       1.041639   -1.865055    1.021677
C       2.181278   -1.893442   -0.015499
O       0.585273   -0.531083    1.185811
H       1.271503    1.804920    0.080065
H      -0.266639    2.040336   -0.779704
H      -0.243227    1.943285    0.992603
H      -1.055535   -0.176033   -0.000939
H      -0.122886   -0.575985   -2.084430
H       1.479414    0.024250   -1.651591
H      -0.832210   -2.436030   -0.164577
H       0.427340   -3.694306   -0.055629
H       1.173249   -2.284017    2.023131
H       2.767866   -2.817389   -0.012378
H       2.843428   -1.024436   -0.053694
