15

C       0.082253    1.545562   -0.257743
C      -0.032521    0.076354    0.053348
O       1.168727   -0.712022    0.040745
C       0.465346   -0.582631    1.270472
C       1.167743    0.171807    2.391753
O       0.248263    0.681963    3.339703
C       2.176616   -0.694908    3.035874
N       2.927459   -1.394829    3.566175
H       0.946001    2.006921    0.224629
H       0.187444    1.688592   -1.337714
H      -0.821454    2.071424    0.066629
H      -0.872300   -0.420880   -0.435867
H      -0.036008   -1.492973    1.607986
H       1.687919    1.037349    1.974769
H      -0.133790   -0.057540    3.826582
