16

O      -0.042131    1.408641    0.007265
C      -0.052981   -0.001379    0.002489
C      -1.461982   -0.526107    0.013009
N      -2.438561    0.324336    0.023333
N      -3.694140   -0.173164    0.032678
C      -3.991950   -1.498676    0.032217
C      -3.005101   -2.424773    0.021614
C      -1.620934   -1.996651    0.010632
N      -0.555516   -2.727791   -0.000565
H       0.878567    1.684641   -0.001165
H       0.451606   -0.427859   -0.879218
H       0.466949   -0.433966    0.872203
H      -4.412782    0.530252    0.040727
H      -5.048745   -1.740673    0.040720
H      -3.246922   -3.481074    0.021283
H      -0.805682   -3.718851   -0.000928
