16

C       0.227161    1.524688   -0.223984
C      -0.031459    0.034530   -0.080064
O      -1.395362   -0.284682   -0.080474
C       0.782003   -0.855322   -1.050775
N       1.804672   -1.039617    0.007508
C       0.828004   -0.667583    1.051331
C       1.345226    0.128175    2.160625
N       1.718667    0.780893    3.039049
H       1.299691    1.730424   -0.261019
H      -0.236072    1.891907   -1.144819
H      -0.187980    2.078738    0.626117
H      -1.876524    0.409883    0.382346
H       0.211062   -1.757873   -1.302657
H       1.157095   -0.388914   -1.966594
H       2.188553   -1.973547    0.096839
H       0.241680   -1.504313    1.454358
