21

C       0.090839    1.295266   -0.049073
O       0.007009   -0.091848    0.176983
C      -1.285499   -0.648585   -0.002878
C      -1.687656   -0.747405   -1.477808
C      -1.285502   -1.998991    0.698234
O      -0.429551   -2.896251   -0.026173
C      -0.359838   -4.155640    0.453283
C       0.587683   -4.988745   -0.376143
O      -0.977202   -4.538571    1.414775
H       1.097263    1.606651    0.241703
H      -0.063674    1.566463   -1.103578
H      -0.640200    1.851257    0.559826
H      -2.025392   -0.026322    0.531729
H      -0.967682   -1.361753   -2.022485
H      -2.678601   -1.202920   -1.572503
H      -1.732372    0.240228   -1.943528
H      -0.915286   -1.893238    1.721577
H      -2.297613   -2.413516    0.739222
H       1.592779   -4.559116   -0.336082
H       0.604163   -6.008442    0.006451
H       0.275113   -4.985823   -1.424035
