21

C       0.123671    1.382236   -0.134644
O       0.017152   -0.008053    0.056828
C      -1.317550   -0.505757    0.067939
C      -1.835350   -0.743956   -1.367481
C      -3.332663   -0.849099   -1.450542
C      -4.096872   -1.633061   -0.678128
C      -3.657077   -2.566187    0.355978
C      -2.479175   -2.648692    0.993611
C      -1.258355   -1.779618    0.909185
H       1.186860    1.632763   -0.093703
H      -0.271184    1.710619   -1.108080
H      -0.403115    1.942881    0.653535
H      -1.975465    0.228473    0.557311
H      -1.491930    0.076018   -2.005071
H      -1.362391   -1.655774   -1.757752
H      -3.826150   -0.224513   -2.190565
H      -5.170120   -1.621974   -0.855532
H      -4.405693   -3.305179    0.635628
H      -2.371690   -3.462884    1.708465
H      -0.415928   -2.381411    0.537244
H      -0.963328   -1.492176    1.927372
