21

O       0.203100    1.324644   -0.372495
C       0.037120   -0.015465    0.054234
C       0.369044   -0.261318    1.537534
O      -0.324899   -1.446783    1.875646
C      -1.579308   -1.437277    1.180305
C      -2.756777   -0.912705    2.034983
C      -3.566260   -0.023200    1.078305
C      -2.477414    0.670845    0.241992
C      -1.439708   -0.444080   -0.016587
H       1.143858    1.525540   -0.371959
H       0.641986   -0.696398   -0.562114
H       1.433183   -0.423228    1.737029
H       0.033512    0.606842    2.129765
H      -1.755151   -2.467086    0.855704
H      -3.340023   -1.718930    2.487561
H      -2.343613   -0.310992    2.852879
H      -4.200662   -0.643160    0.431890
H      -4.224483    0.679920    1.597111
H      -2.852903    1.112923   -0.683846
H      -2.023496    1.483580    0.818041
H      -1.655545   -0.941197   -0.965195
