18

C      -0.350944    1.591517   -0.035652
C       0.049799    0.120880    0.016794
C      -1.164154   -0.783222   -0.211977
C       1.264986   -0.296890   -0.875800
C       1.854389   -1.085785    0.323601
C       0.882496   -0.324802    1.264157
H       0.512970    2.244879    0.127283
H      -0.786206    1.849665   -1.008695
H      -1.097440    1.826953    0.732605
H      -1.618858   -0.589694   -1.190571
H      -0.890823   -1.843342   -0.176950
H      -1.930519   -0.612437    0.553119
H       1.037935   -0.857939   -1.787085
H       1.884329    0.563600   -1.146952
H       1.632589   -2.154902    0.270013
H       2.923529   -0.971421    0.516188
H       1.365698    0.525753    1.754692
H       0.356412   -0.907673    2.025909
