18

C      -0.042237    1.569345   -0.176520
C       0.020084    0.044518   -0.086876
C       1.076445   -0.795517   -0.899117
C       2.146017   -0.543823    0.239890
C       2.973023    0.731720    0.399360
C       0.799241   -0.767620    1.025667
C       0.624475   -1.929897    0.034791
O       0.310740   -3.079396    0.006272
H       0.899889    2.043956   -0.443244
H      -0.768089    1.846059   -0.948292
H      -0.392889    2.003934    0.765929
H      -1.001581   -0.332629   -0.208033
H       1.235023   -0.811838   -1.976198
H       2.833089   -1.392630    0.330717
H       2.398187    1.608667    0.689903
H       3.722421    0.568425    1.180943
H       3.515646    0.964943   -0.523269
H       0.640741   -0.750821    2.102756
