17

C       0.099400    1.273566    0.413905
C       0.078674   -0.236371    0.348959
O       1.075032   -0.920318    0.368382
C      -1.277730   -0.885632    0.233883
N      -2.345403   -0.215187    0.026946
C      -3.455672   -1.176602   -0.084237
C      -2.796346   -2.551484    0.022444
C      -1.742317   -2.910403   -0.956487
N      -1.369818   -2.306379    0.349069
H       1.133616    1.618365    0.432826
H      -0.435876    1.700224   -0.438684
H      -0.427722    1.616507    1.310313
H      -4.163762   -1.005187    0.735201
H      -4.001469   -1.004217   -1.018679
H      -3.284929   -3.335181    0.591407
H      -1.440168   -3.945817   -1.074279
H      -1.623375   -2.289877   -1.841180
