17

C       0.063623    1.523457   -0.123846
C      -0.009957    0.033872    0.027351
O       0.298168   -0.753586   -1.167607
C      -0.301816   -1.908846   -0.497994
C      -0.628511   -3.083788   -1.369730
C       0.532466   -2.014802    0.763686
C       0.725592   -0.730227    1.110962
C      -1.352887   -0.826263    0.018335
O      -2.521409   -0.681592    0.132506
H       1.083369    1.838274   -0.365310
H      -0.604450    1.864838   -0.918223
H      -0.234384    2.009286    0.809953
H       0.280824   -3.504177   -1.809823
H      -1.116882   -3.863883   -0.778320
H      -1.303619   -2.790196   -2.177151
H       0.793288   -2.924560    1.285432
H       1.186583   -0.308420    1.992705
