20

C      -0.262575    1.530481   -0.009826
C       0.060734    0.033129   -0.005439
C       0.996345   -0.394890   -1.169755
N       1.874486   -1.402806   -0.558528
C       1.845192   -1.277069    0.807903
C       2.847937   -2.040207    1.613075
C       0.821596   -0.471431    1.216820
C       0.414615   -0.241600    2.576272
O      -0.558215    0.412489    2.921612
H       0.654196    2.126007    0.064923
H      -0.777400    1.814629   -0.934534
H      -0.899884    1.776962    0.840314
H      -0.886787   -0.518612   -0.080030
H       0.458841   -0.812078   -2.025611
H       1.584082    0.465110   -1.523004
H       2.741881   -1.645713   -1.013292
H       2.771875   -3.111699    1.397350
H       3.867174   -1.728071    1.354554
H       2.708619   -1.891462    2.683123
H       1.061986   -0.714447    3.349716
