19

C      -0.041119    1.530313    0.065894
C       0.025613    0.022114    0.043861
C       0.865255   -0.808046   -0.966807
N       0.781592   -1.938424    0.036776
C       0.797996   -0.841642    1.081879
C      -0.670538   -2.227032   -0.016082
C      -1.310101   -0.775057   -0.034027
C      -2.220383   -0.506296    1.069518
N      -2.929538   -0.291474    1.958033
H       0.961771    1.964150    0.129959
H      -0.517535    1.919696   -0.840858
H      -0.619962    1.886528    0.924316
H       0.451712   -1.029666   -1.955984
H       1.896145   -0.458928   -1.057915
H       1.820782   -0.497742    1.250259
H       0.319324   -1.092623    2.032458
H      -0.916070   -2.789254   -0.919245
H      -0.977857   -2.804716    0.857146
H      -1.837176   -0.573195   -0.971804
