19

C      -1.079015    0.238084   -0.017453
C       0.427699    0.127350   -0.243608
O       0.995200    1.379706   -0.627819
C       1.189213   -0.403775    0.950174
C       2.665484   -0.740266    0.829434
O       3.009554   -1.435206    2.023061
C       1.845127   -2.023648    2.587151
C       0.684314   -1.202538    2.071194
O       0.894447    0.207685    2.224226
H      -1.288195    0.813947    0.889344
H      -1.535417    0.744139   -0.871254
H      -1.540964   -0.748595    0.087495
H       0.623124   -0.534925   -1.095706
H       0.892485    1.976716    0.123268
H       2.825259   -1.364151   -0.065410
H       3.304213    0.143848    0.754901
H       1.718263   -3.073295    2.272522
H       1.948777   -1.997089    3.676827
H      -0.339258   -1.553799    2.163106
