20

C       0.794435   -0.287595   -1.252687
N       0.043780   -0.090549   -0.014135
C       0.209581    1.267123    0.507120
C      -1.334186   -0.502737   -0.161972
C      -1.575681   -2.053304   -0.086087
O      -0.557370   -2.670559    0.659134
C      -2.854615   -1.805957    0.767568
C      -2.319096   -0.394440    1.032345
O      -2.501601    0.423160    1.887210
H       1.849915   -0.058602   -1.078451
H       0.719336   -1.330391   -1.572981
H       0.432163    0.358202   -2.072548
H      -0.106080    2.035972   -0.219996
H      -0.378458    1.392456    1.415606
H       1.266342    1.433692    0.737151
H      -1.833047   -0.076041   -1.053653
H      -1.726188   -2.571856   -1.037700
H       0.107707   -1.976239    0.810393
H      -3.780103   -1.786779    0.182112
H      -2.982038   -2.450298    1.638824
