16

C       0.000854    1.510041   -0.002187
C       1.432876    2.057995    0.065116
O       2.137328    1.650035    1.262883
C       1.897027    0.361849    1.512501
C       0.977371   -0.486539    0.995524
C      -0.034660   -0.036987   -0.006030
N       1.157382   -1.730444    1.599889
C       2.141375   -1.553611    2.415313
O       2.660445   -0.281957    2.423303
H      -0.556464    1.888138    0.862111
H      -0.476848    1.916625   -0.899312
H       2.015994    1.717013   -0.800618
H       1.442654    3.148984    0.088677
H      -1.037809   -0.392428    0.252611
H       0.185911   -0.428742   -1.007694
H       2.602888   -2.257441    3.087976
