14

O      -0.001189   -0.042802    0.003583
C      -0.006640    1.156609    0.002473
N      -1.093559    1.987004    0.108864
C      -0.809086    3.399537   -0.001681
C       0.726235    3.385773   -0.005826
C       1.428393    2.737783    1.137637
N       1.191603    1.979580   -0.104208
C       1.395505    4.378667   -0.807589
N       1.905064    5.207929   -1.430558
H      -2.023870    1.603569    0.136276
H      -1.181885    3.831404   -0.937832
H      -1.219594    3.978971    0.832959
H       2.467831    2.982875    1.326502
H       0.832937    2.486787    2.011732
