18

C      -0.132783    1.442549   -0.120967
N      -0.175299    0.012671   -0.359966
C       0.934622   -0.712158   -0.662645
O       2.052140   -0.218175   -0.741336
C       0.723990   -2.193790   -0.899891
C      -0.574309   -2.848837   -0.479442
C       1.491162   -2.727495   -2.068418
N       1.939826   -3.003148   -0.704621
H      -0.514269    1.688284    0.876060
H       0.909525    1.753901   -0.192504
H      -0.721574    1.989655   -0.865840
H      -1.063438   -0.456337   -0.317829
H      -1.425670   -2.488668   -1.069868
H      -0.500998   -3.927993   -0.629698
H      -0.787112   -2.677065    0.581573
H       1.089946   -3.580435   -2.609955
H       2.054928   -2.012791   -2.660015
H       2.692491   -2.348336   -0.488361
