16

N      -0.552302    0.968426   -0.610766
C      -0.142978   -0.151954   -0.151242
N      -0.872508   -0.913745    0.710590
C      -2.265465   -0.598236    0.985247
C      -3.212529   -1.364918    0.172093
C      -3.985051   -2.014874   -0.479380
N       1.135925   -0.698097   -0.464703
C       1.669752   -1.914036   -0.133710
O       1.137832   -2.780715    0.528838
H       0.133991    1.418691   -1.208947
H      -0.531853   -1.850949    0.884213
H      -2.463831   -0.783170    2.047546
H      -2.396269    0.471761    0.805273
H      -4.669266   -2.579535   -1.062886
H       1.709725   -0.103629   -1.043006
H       2.685592   -2.031018   -0.553984
