25

C      -0.763671    1.152620    0.491782
C       0.341286    0.252720   -0.078534
C       1.101200   -0.502481    1.010081
C       2.145168    0.352998    1.708810
O       0.284695   -1.296780    1.893687
C       1.194336   -1.988443    1.014760
C       0.523160   -2.821719   -0.064643
C       2.341832   -2.720648    1.707600
C       1.849793   -3.715404    2.767962
H      -0.362186    1.926905    1.153297
H      -1.307740    1.655702   -0.313092
H      -1.474243    0.555493    1.069599
H      -0.101914   -0.441470   -0.795415
H       1.063263    0.856931   -0.642210
H       1.738629    1.346346    1.924091
H       2.455434   -0.084978    2.657545
H       3.028458    0.489338    1.074683
H      -0.456186   -2.423521   -0.330177
H       1.144056   -2.868569   -0.966419
H       0.375216   -3.848055    0.286222
H       2.923165   -3.247457    0.940414
H       3.027059   -2.012116    2.177373
H       2.694580   -4.200674    3.265729
H       1.254506   -3.195835    3.523624
H       1.225407   -4.502886    2.333997
