18

C      -0.166477    1.559078    0.013491
C       0.031827    0.057900    0.050588
C       1.368061   -0.608136   -0.219333
C       2.626471    0.166968   -0.550576
C       0.765456   -0.653447    1.172465
C       1.366540    0.072603    2.358092
H       0.690431    2.112326    0.404545
H      -0.335695    1.904982   -1.012627
H      -1.040258    1.851508    0.606944
H      -0.827792   -0.483024   -0.339258
H       1.301499   -1.544363   -0.769373
H       2.703643    1.109025   -0.002966
H       3.520330   -0.421073   -0.313067
H       2.666195    0.407974   -1.619004
H       0.341289   -1.616481    1.448440
H       1.795568    1.041410    2.092342
H       0.609097    0.253314    3.129328
H       2.165553   -0.522123    2.815346
