17

C       0.010881    1.601796   -0.265546
O       1.447221    1.489339    0.112326
C       1.049670    0.313553    0.902003
C       1.097369   -1.256188    1.045573
N      -0.459846   -1.096965    1.044246
C      -0.643022   -0.369475    2.337477
C       0.499059    0.678562    2.306180
C      -0.113687    0.067877    0.045526
H      -0.514032    2.307389    0.382977
H      -0.099517    1.883630   -1.314898
H       1.421652   -1.796233    0.158033
H       1.485937   -1.711353    1.961919
H      -1.638882    0.079618    2.358123
H      -0.571948   -1.082905    3.162353
H       1.256655    0.529084    3.079915
H       0.151533    1.710486    2.373428
H       0.148007   -0.448844   -0.878072
