20

C      -0.160308    0.800858    0.379086
O      -0.290919   -0.454939   -0.262347
C       0.641376   -0.706714   -1.269154
C       0.392836    0.011794   -2.577771
C       2.060256   -1.034958   -0.844258
C       1.140255   -2.134282   -1.300958
O       0.748020   -3.038031   -0.306774
C      -0.551531   -3.420165   -0.320688
N      -0.946018   -4.303863    0.487676
H       0.842647    0.932843    0.806930
H      -0.362920    1.637264   -0.303707
H      -0.897416    0.818728    1.184596
H       0.550896    1.091174   -2.479787
H       1.073019   -0.349032   -3.354724
H      -0.635655   -0.154872   -2.913911
H       2.891861   -0.743153   -1.475733
H       2.258329   -1.029156    0.221656
H       1.308281   -2.593032   -2.273458
H      -1.152541   -2.891368   -1.068994
H      -1.942111   -4.468172    0.357299
