20

C       0.095844    1.455095   -0.131548
C       1.263061    0.536539   -0.034615
C       2.293181    0.594626    1.051965
O       1.895269    0.713376    2.419451
C       2.460731   -0.533524    1.981281
C       1.578564   -1.769971    1.880806
C       0.051977   -1.588159    2.052332
C      -0.575102   -0.305932    1.484701
N      -0.099792    0.030932    0.137271
H      -0.057801    2.143437    0.698305
H      -0.241374    1.819022   -1.098778
H       1.717849    0.210403   -0.972163
H       3.173242    1.187052    0.791979
H       3.460376   -0.710897    2.380050
H       1.780169   -2.221496    0.901181
H       1.917045   -2.504073    2.620020
H      -0.428388   -2.465317    1.605521
H      -0.195411   -1.612481    3.119373
H      -1.658984   -0.451980    1.403644
H      -0.406987    0.513502    2.190850
