17

O       0.039731    1.436727    0.124088
C       0.013726    0.040726    0.045294
C       0.111500   -0.673675    1.430854
C      -1.387510   -0.290174    1.632585
C      -1.408744   -0.606439    0.102189
O      -1.139155   -2.005009    0.037127
C      -0.033149   -2.130482    0.977227
C      -2.493758   -0.164236   -0.816422
O      -2.599057    0.992132   -1.163786
H      -0.652819    1.765709   -0.466257
H       0.658488   -0.347176   -0.755460
H       0.886682   -0.434763    2.157076
H      -2.010617   -0.926359    2.264188
H      -1.522744    0.766829    1.846525
H       0.847541   -2.520249    0.455564
H      -0.308483   -2.817631    1.784226
H      -3.195896   -0.946698   -1.170753
