19

C      -0.569844    1.413017    0.095782
C       0.093812    0.044290   -0.027163
C       0.902726   -0.068731   -1.350258
O       1.994608   -0.986521   -1.268919
C       2.542183   -1.088567    0.037467
C       1.472981   -1.642363    0.998761
N       0.950420   -0.231834    1.154431
C       2.358846    0.222735    0.834167
H       0.180589    2.209187    0.157283
H      -1.205871    1.619469   -0.772041
H      -1.184043    1.456911    0.998413
H      -0.687705   -0.724835   -0.012927
H       0.267694   -0.408012   -2.174246
H       1.284768    0.925605   -1.625743
H       3.520622   -1.565852   -0.063167
H       0.761484   -2.364812    0.589843
H       1.870328   -2.000951    1.953560
H       2.953784    0.246940    1.750928
H       2.455430    1.180086    0.317253
