17

O       0.092696    1.398181   -0.001878
C       0.030788   -0.018422    0.022439
C       0.630758   -0.579161    1.359391
C      -0.617850   -0.729151    2.169206
C      -1.773709   -0.696436    1.422671
C      -1.450760   -0.521721   -0.035977
C      -2.811135   -0.889527    2.357801
N      -2.326684   -1.026161    3.594133
N      -0.980108   -0.932325    3.453853
H      -0.467978    1.722843    0.713009
H       0.611823   -0.342131   -0.844429
H       1.132892   -1.542634    1.201314
H       1.372123    0.121090    1.755328
H      -2.062655    0.211371   -0.570017
H      -1.524131   -1.467897   -0.587911
H      -3.880013   -0.931457    2.206587
H      -0.405213   -0.997436    4.276413
