17

O      -0.007766    1.352772   -0.217691
C       0.013499   -0.010519   -0.014802
C      -0.297040   -1.044821   -1.077045
C      -1.118622   -0.980143    0.182659
O      -0.447695   -1.651622    1.258203
C       0.633758   -0.681650    1.223127
C       2.012662   -1.282610    1.189733
C       2.252536   -2.684311    1.556750
O       2.298374   -2.261500    0.190456
H       0.624983    1.565759   -0.912193
H      -0.794195   -0.618934   -1.944363
H       0.362455   -1.885185   -1.258961
H      -2.193661   -0.868361    0.241584
H       0.559419   -0.009342    2.089722
H       2.814936   -0.559382    1.349667
H       3.209611   -2.972925    1.987810
H       1.398912   -3.305529    1.814899
