21

C      -0.200755    1.548469    0.009146
C      -0.089716    0.096721    0.008604
C      -0.006414   -1.105288    0.007816
C       0.131874   -2.569546   -0.001154
C      -1.245917   -3.247956   -0.001199
O       0.772413   -2.994259   -1.213956
C       0.939586   -3.015866    1.225268
C       1.649706   -4.342112    1.222676
C       2.442186   -3.056287    1.200774
H       0.583383    2.010576    0.618868
H      -0.115403    1.952746   -1.005542
H      -1.167695    1.870322    0.411328
H      -1.830441   -2.911308   -0.860107
H      -1.112551   -4.331197   -0.063815
H      -1.791883   -3.010406    0.915351
H       1.413980   -2.317661   -1.452175
H       0.484152   -2.705654    2.161191
H       1.639008   -4.935052    2.130403
H       1.624309   -4.911215    0.300716
H       2.944951   -2.808219    0.272517
H       2.977594   -2.752857    2.093372
