21

C       0.034790    1.528099    0.063696
C      -0.043929    0.014104   -0.029996
C       0.650637   -0.560651   -1.291217
C       0.607697   -2.106521   -1.300735
C       0.854333   -2.720712    0.095900
C       0.130338   -1.889888    1.177502
O       0.645904   -0.558657    1.096435
C      -1.341291   -1.696600    0.839306
C      -1.442351   -0.583075    0.121010
H       1.078161    1.857342    0.046674
H      -0.486667    1.995343   -0.777735
H      -0.421220    1.874928    0.994993
H       0.192733   -0.166563   -2.206382
H       1.688754   -0.208531   -1.270268
H      -0.373456   -2.430570   -1.661308
H       1.340852   -2.494443   -2.015525
H       0.528855   -3.767467    0.114976
H       1.922671   -2.706433    0.339157
H       0.321843   -2.275738    2.183323
H      -2.123869   -2.404595    1.080877
H      -2.326202   -0.175450   -0.353514
