18

C       0.080470    1.557505   -0.158197
C       0.031792    0.107562   -0.048746
C      -0.008431   -1.090675    0.069703
C      -0.014009   -2.525290    0.131902
C      -0.464414   -3.355280    1.281941
C      -1.634667   -2.769324    2.049001
O      -1.328081   -1.658451    2.854452
C      -2.345528   -2.601826    0.673332
N      -1.241789   -3.354891   -0.028136
H       1.112183    1.909268   -0.269034
H      -0.484309    1.913145   -1.027265
H      -0.339364    2.037114    0.732953
H       0.803300   -2.987660   -0.418797
H       0.120212   -4.212658    1.601794
H      -2.126560   -3.558014    2.634178
H      -2.123216   -1.403284    3.333020
H      -3.286829   -3.146089    0.578756
H      -2.464291   -1.573527    0.324081
