23

C       0.461949    1.037860    0.476833
O      -0.307704    0.193012   -0.353434
C       0.450186   -0.439471   -1.335845
C       1.218182   -1.693148   -0.985511
C      -0.040735   -1.764261   -1.833956
C      -1.303117   -2.390967   -1.278219
C      -1.304736   -3.919563   -1.392952
C      -2.576823   -4.549802   -0.842898
O      -2.474000   -5.958363   -0.995720
H       1.246624    0.480294    1.008185
H       0.941890    1.843689   -0.099467
H      -0.219705    1.483014    1.205573
H       0.900048    0.246880   -2.056034
H       2.184773   -1.871117   -1.444150
H       1.130781   -2.039897    0.039610
H       0.117757   -1.943139   -2.895045
H      -1.421347   -2.089522   -0.232013
H      -2.172202   -1.980562   -1.810408
H      -1.192642   -4.222488   -2.441480
H      -0.445490   -4.337408   -0.855196
H      -2.699819   -4.271956    0.217195
H      -3.452413   -4.153816   -1.383936
H      -3.276212   -6.357085   -0.646619
