19

C       0.345012    1.296722    0.262725
O       0.205221   -0.106555   -0.000048
C       0.475950   -0.484310   -1.263521
O       0.821300    0.276051   -2.132401
C       0.253268   -1.976125   -1.444172
C       1.194770   -2.557918   -2.473704
O       2.443008   -3.069569   -1.993432
C       1.512804   -3.990407   -2.576970
C       0.946514   -5.069854   -1.689309
H       1.366754    1.625240    0.058151
H      -0.341446    1.875727   -0.360253
H       0.104956    1.425588    1.318008
H       0.345468   -2.478993   -0.481379
H      -0.784648   -2.099626   -1.783043
H       1.282331   -1.947639   -3.372189
H       1.819452   -4.342973   -3.564479
H       0.630061   -4.680452   -0.719723
H       0.086448   -5.546656   -2.172209
H       1.700310   -5.844040   -1.512324
