18

C       0.076289    1.478465   -0.062426
C      -0.034370   -0.008803    0.254476
N      -1.362457   -0.506881   -0.092384
C      -1.648673   -1.836895   -0.097541
C      -2.859661   -2.485808    0.000934
N      -4.100281   -1.825963    0.213612
C      -2.492748   -3.848542   -0.143972
N      -1.204716   -4.030067   -0.301682
O      -0.657873   -2.713580   -0.274514
H       1.074003    1.847316    0.190762
H      -0.106086    1.665119   -1.124465
H      -0.649301    2.062316    0.515580
H       0.694893   -0.576936   -0.328983
H       0.198585   -0.188782    1.315620
H      -2.148096    0.041614    0.233333
H      -4.715436   -1.894952   -0.591176
H      -4.602361   -2.208343    1.008010
H      -3.136507   -4.719042   -0.129823
