18

C      -0.121326    1.552670    0.037420
C       1.405196    1.507194   -0.237899
N       1.430298    0.149459    0.329488
C      -0.035765    0.025795    0.301407
C       2.292207   -0.833431   -0.109818
N       3.438200   -0.517581   -0.714652
N       4.021903   -1.719491   -0.957045
C       3.278201   -2.765073   -0.536415
C       2.135358   -2.239490    0.026246
H      -0.385162    2.129688    0.925231
H      -0.754533    1.863064   -0.793798
H       1.667535    1.526997   -1.303913
H       2.035185    2.229974    0.289254
H      -0.480503   -0.347348    1.230430
H      -0.404034   -0.584980   -0.535840
H       4.918259   -1.738540   -1.409427
H       3.608387   -3.784493   -0.662395
H       1.317751   -2.778961    0.474397
