21

O       0.153051    1.414817    0.005434
C       0.132247    0.005397    0.027815
C      -1.301819   -0.521572    0.117420
O      -2.081552    0.079666   -0.926092
C      -1.387233   -2.047784    0.094822
C      -2.817359   -2.574559    0.258282
C      -2.904497   -4.107280    0.170211
C      -4.334408   -4.594125    0.234536
O      -4.757854   -5.398276    1.023463
H      -0.590127    1.672352   -0.555934
H       0.614831   -0.421633   -0.872055
H       0.715621   -0.321899    0.895600
H      -1.751345   -0.136440    1.040752
H      -1.780669   -0.292251   -1.764556
H      -0.962152   -2.416271   -0.851373
H      -0.747289   -2.449424    0.891012
H      -3.216658   -2.243242    1.225064
H      -3.454532   -2.118681   -0.508270
H      -2.489504   -4.436473   -0.794443
H      -2.333636   -4.594636    0.966332
H      -5.005996   -4.133856   -0.529280
