19

C      -0.125309    1.515863   -0.050411
N      -0.015481    0.080495    0.084917
C      -1.235833   -0.698275    0.360509
C      -0.393743   -1.560139    1.309612
O      -0.547801   -2.594525    1.886724
C       0.759948   -0.538451    1.210618
C       2.114564   -1.094930    0.783192
C       0.866393    0.294021    2.497316
H       0.870361    1.959513   -0.150582
H      -0.682370    1.752264   -0.963304
H      -0.639507    2.012470    0.792648
H      -2.026088   -0.152326    0.905928
H      -1.689796   -1.193911   -0.504953
H       2.019731   -1.673328   -0.138815
H       2.825711   -0.280654    0.604249
H       2.526473   -1.741509    1.564433
H       1.262760   -0.326421    3.306167
H       1.545604    1.141506    2.356427
H      -0.103734    0.684500    2.819529
