20

C      -0.185317    1.381715   -0.296934
C       1.216459    1.050252    0.143685
C       0.180153   -0.046595    0.031069
C      -0.330091   -0.732475    1.251697
C       0.309089   -2.070724    1.737964
C      -1.039634   -2.359669    2.386473
C      -1.748227   -1.415088    1.494569
N      -1.618276   -1.082731    2.939913
C      -0.604328   -0.032415    2.599122
H      -0.819766    1.922756    0.396347
H      -0.352298    1.634134   -1.338156
H       2.014194    1.080482   -0.589824
H       1.517862    1.359233    1.138997
H       0.291339   -0.704482   -0.827778
H       0.493132   -2.753993    0.904031
H       1.204475   -2.003240    2.366382
H      -1.397392   -3.275093    2.838861
H      -2.685890   -1.450270    0.955123
H       0.226070    0.069261    3.308902
H      -1.128797    0.921907    2.504394
