16

O      -0.223416    1.404504   -0.290584
C      -0.060949    0.030190    0.034479
C      -1.432564   -0.636000    0.006008
N      -1.623936   -1.008510   -1.397095
C      -0.360796   -1.269964   -2.065605
C       0.683061   -0.639502   -1.144254
O       1.871520   -0.614024   -1.318804
C      -2.766703   -0.789000   -2.102609
O      -2.878397   -0.956633   -3.298171
H       0.654707    1.778129   -0.432040
H       0.471185   -0.111131    0.982461
H      -1.434486   -1.521409    0.655645
H      -2.219738    0.044655    0.337132
H      -0.148612   -2.341506   -2.181562
H      -0.354688   -0.825390   -3.065051
H      -3.594611   -0.443042   -1.453272
