21

C      -0.047177    1.475842    0.018698
C       1.510476    1.567300   -0.056826
C       1.561878    0.062031   -0.351202
C       2.495617   -1.011165    0.182504
C       1.790146   -2.308161   -0.323075
C       0.911019   -1.834450   -1.493154
C      -0.202675   -0.808396   -1.261370
C       1.165577   -0.388421   -1.782876
C       0.038484   -0.084802    0.045795
H      -0.495307    1.930211    0.904800
H      -0.559597    1.866138   -0.864157
H       1.947436    2.239047   -0.801796
H       1.946906    1.806605    0.918243
H       3.501463   -0.919880   -0.247104
H       2.596018   -0.984305    1.272812
H       2.512129   -3.057074   -0.662191
H       1.197972   -2.774444    0.471779
H       0.736574   -2.508443   -2.324771
H      -1.136615   -0.876413   -1.811931
H       1.470009    0.044211   -2.727627
H      -0.268866   -0.552049    0.986428
