19

C      -0.218143    1.619168   -0.095279
C      -0.007157    0.116067   -0.005802
C       1.185280   -0.565432   -0.769242
C       2.397216    0.040785   -0.081887
C       2.073972    0.070073    1.227314
C       2.885504    0.432795    2.423055
C       0.667269   -0.517837    1.263632
C       0.973480   -1.722948    0.284094
O       1.000505   -2.907805    0.323000
H       0.702956    2.167972    0.113269
H      -0.563079    1.898340   -1.096262
H      -0.982344    1.943243    0.618874
H      -0.942559   -0.412064   -0.229997
H       1.190792   -0.723412   -1.845479
H       3.346041    0.266918   -0.548295
H       3.884846    0.770823    2.134286
H       2.410072    1.229753    3.008079
H       3.000684   -0.424720    3.098143
H       0.155003   -0.632451    2.217274
