20

C       0.118821    1.629254    0.191391
C       1.488686    2.050843   -0.406437
C       2.274342    0.731447   -0.621816
C       1.155196   -0.261629   -0.968926
C       0.052600    0.080802    0.047426
C       0.267675   -0.645886    1.372726
O       1.381110   -0.227979    2.171818
C       2.625279    0.016933    1.672404
N       3.063238    0.387270    0.550388
H       0.025034    1.926935    1.239363
H      -0.704089    2.103757   -0.349110
H       1.346983    2.541297   -1.374952
H       2.045244    2.741446    0.230244
H       2.982093    0.836032   -1.449223
H       0.808401   -0.067982   -1.990950
H       1.482180   -1.304723   -0.919541
H      -0.929777   -0.247365   -0.309702
H      -0.593937   -0.496352    2.030302
H       0.368964   -1.724254    1.188319
H       3.333653   -0.112287    2.492374
