18

C      -0.002777    1.413043    0.066140
O       0.016898   -0.006277    0.005571
C       0.629651   -0.632031    1.032560
C       0.778523   -1.986642    1.161287
N       1.451088   -2.151511    2.375679
C       1.798493   -3.406684    3.003300
C       1.677482   -0.907814    2.868158
N       2.281562   -0.702138    4.113109
N       1.193203    0.039841    2.085357
H       1.011151    1.827561    0.077772
H      -0.528839    1.742309   -0.832013
H      -0.529296    1.768694    0.958261
H       0.496590   -2.818345    0.541160
H       2.724974   -3.828753    2.595229
H       1.924617   -3.240423    4.075317
H       0.992919   -4.130302    2.853124
H       3.244490   -1.020116    4.148275
H       2.257824    0.287883    4.326015
