16

N       0.295163    1.533264   -0.114204
C      -0.051522    0.127675    0.139932
C       0.829089   -0.462253    1.197859
C       2.162138   -0.759174    1.190916
C       3.242768   -0.596256    0.164958
O       3.330472    0.732179   -0.336463
O       2.492709   -1.255769    2.385564
N       1.293622   -1.275881    3.163870
N       0.369923   -0.808218    2.450015
H       1.221002    1.566700   -0.533646
H      -0.351651    1.916502   -0.797276
H      -1.079835    0.080980    0.509733
H      -0.005130   -0.513197   -0.758102
H       4.193332   -0.937150    0.593669
H       3.027747   -1.222018   -0.707124
H       3.536619    1.316625    0.402081
