18

C       0.037234    1.485684    0.074015
C       0.016220   -0.004946   -0.001842
C      -0.030444   -0.783426   -1.094572
C      -0.002851   -2.211222   -0.703341
O       0.064465   -3.185819   -1.404879
N      -0.047967   -2.267344    0.749726
C       1.203324   -1.782009    1.370038
C       0.017408   -0.879550    1.220892
C      -0.824125   -0.493978    2.415780
H       0.920823    1.837810    0.619931
H       0.040241    1.938382   -0.919766
H      -0.836274    1.862072    0.619837
H      -0.006227   -0.464992   -2.128376
H       1.430038   -2.212004    2.342350
H       2.059923   -1.621945    0.720189
H      -0.458064    0.431674    2.872128
H      -1.868778   -0.342970    2.124886
H      -0.794709   -1.282801    3.170679
