19

O       0.047624    1.411448   -0.201998
C       0.043544    0.020071    0.017998
C       0.214144   -0.534076    1.473524
C      -1.035920   -1.448342    1.268516
C      -2.342689   -0.940724    1.934714
C      -2.587417   -0.047489    0.691746
O      -3.432210   -0.671240   -0.304170
C      -2.293755   -1.042637   -1.124119
C      -1.332140   -0.613058   -0.027253
H       0.958768    1.720974   -0.191878
H       0.733359   -0.494383   -0.669301
H       1.155674   -1.047309    1.680359
H       0.059120    0.243402    2.227010
H      -0.835260   -2.520251    1.242325
H      -3.125932   -1.694255    2.047389
H      -2.207710   -0.417771    2.886638
H      -2.809052    1.015373    0.818402
H      -2.305907   -2.104748   -1.399142
H      -2.244711   -0.433608   -2.037744
