18

C       0.038527    1.614171   -0.035874
C       1.546566    2.042046   -0.056348
C       2.047741    0.874551    0.769814
O       3.086448    0.698298    1.716893
C       1.728710    0.887914    2.197425
C       0.785881   -0.277015    2.463450
N       0.425583   -0.841086    1.143565
C       0.047119    0.059827   -0.005398
C       1.439403   -0.395914    0.189527
H      -0.472765    2.051199    0.828232
H      -0.497472    1.945156   -0.929634
H       1.937781    2.047870   -1.079004
H       1.730314    3.019962    0.394728
H       1.592729    1.825060    2.731593
H       1.236090   -1.086052    3.048856
H      -0.100204    0.075545    3.002473
H      -0.638231   -0.446689   -0.675897
H       2.008980   -1.109533   -0.396738
