16

C      -0.040312    1.503380    0.070903
C       0.012832    0.016633   -0.046348
C      -0.010719   -0.837486   -1.140954
C      -0.099272   -0.450856   -2.536664
O      -0.117128   -1.227043   -3.471717
C       0.068836   -2.191640   -0.656695
C       0.137093   -2.106434    0.701801
O       0.225924   -3.011857    1.704857
N       0.103613   -0.779807    1.069094
H       0.855829    1.904340    0.560726
H      -0.111768    1.965492   -0.914484
H      -0.908101    1.833602    0.655414
H      -0.152642    0.646510   -2.718532
H       0.072309   -3.079347   -1.267635
H       0.241275   -3.892765    1.317956
H       0.140211   -0.461901    2.023580
