18

C      -0.798042    1.346153    0.026563
C      -0.024223    0.049983   -0.048827
O       1.158276    0.145528   -0.884860
C       1.981040   -0.515643    0.100635
C       3.131268    0.345512    0.599342
C       2.557444    1.118329    1.795205
O       3.087931    2.007800    2.418490
N       1.313204    0.590239    2.058606
C       0.842482   -0.423188    1.152817
H      -0.182748    2.146396    0.445429
H      -1.116900    1.645488   -0.976402
H      -1.694113    1.224826    0.645245
H      -0.670494   -0.766060   -0.404552
H       2.270722   -1.520061   -0.222970
H       3.989615   -0.244357    0.936388
H       3.478329    1.039321   -0.169388
H       0.761525    0.968966    2.812310
H       0.509445   -1.327628    1.667546
