21

C       0.161203    1.574581    0.007265
C       0.019667    0.067244    0.001917
O       0.599283   -0.425492   -1.190438
C       0.806791   -1.842425   -1.184376
C      -0.464808   -2.628425   -0.782262
C      -0.433961   -2.636868    0.775378
C       0.852734   -1.855012    1.135327
C       1.781384   -2.171214   -0.045121
O       0.645970   -0.438264    1.164946
H       1.220098    1.842968   -0.011599
H      -0.331012    1.997076   -0.871864
H      -0.296873    1.987654    0.909033
H      -1.047561   -0.215005    0.021547
H       1.165645   -2.087171   -2.185740
H      -1.363846   -2.164882   -1.195972
H      -0.406210   -3.642946   -1.186961
H      -1.315816   -2.178030    1.229356
H      -0.359603   -3.655702    1.166423
H       1.250895   -2.110522    2.118989
H       2.068846   -3.228653   -0.056564
H       2.675445   -1.545581   -0.059427
