20

C      -0.005288    1.574785   -0.105592
C       0.158040    0.066694   -0.036577
O       1.049408   -0.358776   -1.069113
C       1.365662   -1.716142   -0.783386
C       1.510771   -1.809042    0.742153
C       2.831866   -1.246911    1.335872
C       2.097569    0.055646    1.756364
C       0.748474   -0.534079    1.248152
H       0.947083    2.087117    0.053051
H      -0.387227    1.867468   -1.087546
H      -0.715093    1.915723    0.654512
H      -0.828450   -0.405509   -0.201381
H       0.554243   -2.377660   -1.130259
H       2.277358   -1.971876   -1.331884
H       1.195096   -2.780427    1.127323
H       3.215151   -1.830310    2.176541
H       3.642223   -1.116356    0.612796
H       2.121651    0.275562    2.826056
H       2.429835    0.946057    1.218519
H      -0.008752   -0.682337    2.020317
