18

C      -0.076530    1.573478    0.070604
C       0.062182    0.040685    0.057621
C       0.743515   -0.483971   -1.181525
C       2.059528   -0.925202   -1.194144
C       2.646495   -1.390034   -2.373492
C       1.873748   -1.400023   -3.522921
N       0.600116   -0.985401   -3.549371
C       0.071019   -0.546406   -2.417369
O      -1.218371   -0.133342   -2.464081
H       0.904629    2.056569    0.022902
H      -0.665962    1.914993   -0.784186
H      -0.576152    1.908311    0.985006
H       0.629636   -0.283878    0.936990
H      -0.934733   -0.406555    0.138233
H       2.630869   -0.908462   -0.270133
H       3.672564   -1.737214   -2.393212
H       2.278444   -1.753979   -4.467374
H      -1.499423   -0.261097   -3.380978
