15

C      -0.115694   -1.232699   -0.211899
C      -0.036220   -0.042317   -0.061068
C       0.056002    1.388895    0.089521
C      -0.365047    2.269751   -1.119288
O       0.850324    3.045425   -1.048086
C       1.350813    2.275552    0.052829
C       0.920830    2.847438    1.416590
N      -0.252018    1.928388    1.434122
H      -0.182259   -2.285802   -0.332062
H      -0.440734    1.729110   -2.069729
H      -1.268321    2.874275   -0.965735
H       2.369469    1.916580   -0.099949
H       1.602188    2.657360    2.253368
H       0.701083    3.918941    1.363821
H      -1.164439    2.364040    1.521793
