18

C      -0.075333    1.031397   -0.737331
C       0.161083   -0.060088    0.281964
O       1.241381   -0.280452    0.776990
C      -1.044545   -0.939586    0.635782
C      -0.963461   -2.262399   -0.111748
C      -2.198758   -3.188062   -0.102542
C      -2.227007   -2.910591   -1.590705
N      -2.951484   -3.272481   -2.545566
O      -1.121476   -2.079223   -1.564454
H       0.856914    1.550732   -0.961339
H      -0.493118    0.585619   -1.647269
H      -0.818385    1.744966   -0.362127
H      -1.005599   -1.149941    1.709591
H      -1.992123   -0.443888    0.401487
H      -0.010481   -2.757857    0.090940
H      -2.017283   -4.229402    0.166999
H      -3.064793   -2.814215    0.447094
H      -2.637565   -2.865634   -3.428258
