18

C       0.017101    1.508915    0.075591
C      -0.045464   -0.016227   -0.029519
C       0.706457   -0.551723   -1.262073
C       0.817962   -2.074965   -1.178889
N       1.275998   -2.540237    0.126271
C       1.146113   -1.760803    1.110267
O       0.606467   -0.513032    1.170259
C      -1.440717   -0.475012   -0.028070
C      -2.585976   -0.837937   -0.044922
H       1.060762    1.833506    0.095997
H      -0.484447    1.965164   -0.781489
H      -0.475936    1.843686    0.990887
H       0.192804   -0.234117   -2.173962
H       1.705911   -0.102253   -1.263601
H      -0.151922   -2.540409   -1.394376
H       1.515781   -2.446143   -1.936862
H       1.501219   -2.044559    2.099529
H      -3.597145   -1.163742   -0.049976
