15

O      -0.020947   -0.019980    0.082986
C       0.004333    1.189757   -0.007997
C       1.229121    1.973306   -0.052418
C       1.392720    3.301894   -0.025283
C       2.925802    3.511275   -0.004629
O       3.331058    2.411617   -0.831100
C       2.671947    1.403256   -0.045201
C       3.269637    1.704627    1.349877
C       3.423577    3.024417    1.380796
H      -0.933448    1.784474   -0.062520
H       0.643188    4.079658    0.031257
H       3.305990    4.460747   -0.376480
H       2.805180    0.406638   -0.457108
H       3.447238    0.968241    2.119576
H       3.757605    3.666721    2.182152
