18

C      -0.063523    1.494621   -0.033282
N       0.098427    0.043981    0.051286
C       0.662536   -0.560603   -1.146636
C       1.090339   -2.032920   -0.949254
N       0.536371   -2.839161   -2.046163
C      -0.247645   -2.108237   -2.751193
N      -0.946605   -2.481260   -3.853952
C      -0.363383   -0.685987   -2.276087
O      -1.128586    0.137045   -2.717848
H       0.874676    2.031095   -0.263697
H      -0.786421    1.733526   -0.815589
H      -0.449600    1.868492    0.919163
H       0.697904   -0.181906    0.837768
H       1.511786    0.018804   -1.563246
H       2.178568   -2.153621   -0.923521
H       0.699070   -2.409319    0.004537
H      -1.083674   -3.463776   -4.025604
H      -1.679993   -1.851279   -4.140190
