14

N      -0.145657    1.355560   -0.073672
C      -0.060796    0.115357    0.106660
C      -1.231472   -0.815026   -0.054586
N      -1.179843   -1.854453    0.957081
C      -0.009679   -2.535860    1.179474
N       0.022610   -3.700551    1.691777
C       1.266372   -1.781573    0.840240
O       2.353381   -2.258385    0.973811
O       1.154843   -0.486290    0.401053
H       0.765382    1.805568    0.034395
H      -2.141237   -0.225891    0.058287
H      -1.217041   -1.220119   -1.080613
H      -2.009652   -2.417241    1.083535
H       0.995454   -3.979768    1.822670
