18

O       0.151921    1.393269   -0.510157
C       0.177062    0.119252    0.096042
C      -1.244688   -0.470931    0.112135
N      -1.801287   -0.393255   -1.290097
C      -1.806435   -1.889652   -1.381308
C      -1.377843   -2.021975    0.091715
O      -0.217944   -2.797187    0.273052
C      -2.106739    0.248425    1.125779
O      -2.747616   -0.301088    1.988352
H      -0.314728    1.250188   -1.347698
H       0.842741   -0.580896   -0.426923
H       0.563285    0.246617    1.113609
H      -2.742564   -0.011640   -1.310155
H      -2.768432   -2.334077   -1.649273
H      -1.040424   -2.249647   -2.074371
H      -2.189233   -2.343325    0.752374
H      -0.124662   -2.994799    1.209951
H      -2.112365    1.354240    1.014240
