21

C       0.332645    1.375079   -0.848667
C       0.088625   -0.044555   -0.330362
C      -1.363875   -0.487286   -0.510851
N      -1.517423   -1.872013   -0.052105
C      -1.850880   -2.110027    1.335822
C      -2.845869   -2.417832    0.261975
C      -4.087129   -1.567654    0.196851
N      -5.136259   -2.165402   -0.441364
O      -4.169959   -0.449143    0.675260
H       1.374156    1.676676   -0.701802
H       0.112966    1.450903   -1.919587
H      -0.301660    2.102186   -0.329962
H       0.744673   -0.756561   -0.844197
H       0.347798   -0.098584    0.734706
H      -2.042544    0.204158    0.003834
H      -1.624976   -0.468047   -1.576788
H      -1.325652   -2.924437    1.828304
H      -2.095644   -1.251790    1.959054
H      -2.972021   -3.450264   -0.060421
H      -5.040882   -3.036568   -0.932224
H      -5.981174   -1.631534   -0.562890
