21

C      -0.244072    1.620145   -0.121685
C      -0.064867    0.108235   -0.042802
C       0.941810   -0.620631   -1.058173
C       1.929630   -0.783690    0.136486
C       2.573976   -1.725128    1.226460
C       1.945567   -0.576869    2.150507
O       2.742527    0.553435    1.843079
C       2.798560    0.465633    0.405469
C       0.771768   -0.613802    1.096650
H       0.683464    2.186158   -0.026467
H      -0.706260    1.896573   -1.076384
H      -0.912880    1.957515    0.677436
H      -1.064062   -0.335327   -0.093594
H       0.517236   -1.561454   -1.415888
H       1.297345   -0.045137   -1.918607
H       2.091426   -2.696710    1.327747
H       3.663865   -1.815943    1.274069
H       1.825678   -0.670456    3.230518
H       3.834162    0.311983    0.075921
H       2.433173    1.392118   -0.040861
H       0.281370   -1.582129    1.234209
