21

C      -0.024317   -1.245827   -0.003597
C      -0.009951   -0.044966    0.035060
C       0.008820    1.412235    0.056964
C       1.423276    2.008495    0.016323
C       1.411642    3.533295   -0.150717
C       2.839128    4.093392   -0.058279
C       3.529335    3.583844    1.214172
C       3.410726    2.060972    1.297776
O       2.058463    1.638215    1.230051
H      -0.036262   -2.307067   -0.025504
H      -0.560245    1.801445   -0.796390
H      -0.487532    1.779212    0.963887
H       1.972260    1.560895   -0.831033
H       0.951666    3.798278   -1.109824
H       0.788196    3.966974    0.642220
H       3.412085    3.766692   -0.936987
H       2.824499    5.188016   -0.083447
H       4.585431    3.876188    1.232628
H       3.052346    4.023975    2.098528
H       3.991373    1.594481    0.482665
H       3.799962    1.679108    2.245989
