15

O      -0.006484    1.428268   -0.056455
C       0.029520    0.015909    0.029555
C       0.641729   -0.648846   -1.219137
C      -0.126924   -0.270851   -2.493384
C       0.600804   -0.711382   -3.744190
O       0.122260   -1.384417   -4.618229
C       0.740138   -0.425396    1.246714
N       1.329930   -0.754020    2.184390
H       0.897232    1.760874   -0.000413
H      -1.018183   -0.292034    0.122687
H       1.692102   -0.339182   -1.299068
H       0.644723   -1.734850   -1.076153
H      -1.132397   -0.701455   -2.502727
H      -0.221861    0.822935   -2.527474
H       1.655715   -0.352435   -3.808303
