15

O       0.001125   -0.045402    0.050388
C       0.024373    1.162578    0.097998
C       1.266702    1.954765    0.051556
C       1.331917    3.298944    0.105773
C       2.755395    3.748670   -0.019049
O       3.144743    4.888029   -0.111665
C       3.591864    2.489612   -0.052686
C       3.492740    1.598178    1.178286
C       2.624612    1.332376   -0.029744
H      -0.908550    1.760993    0.169826
H       0.504168    3.988000    0.219084
H       4.512528    2.490680   -0.620926
H       4.332079    0.934263    1.354636
H       3.022331    1.989031    2.074164
H       2.763515    0.425573   -0.603129
