19

C      -0.258790    1.540099    0.066150
C      -0.027803    0.047001   -0.007860
C       0.585867   -0.623413   -1.187140
C       1.132448    0.143176   -2.382463
O       2.063032    1.153043   -2.029247
C       3.070766    0.632130   -1.177316
C       2.492312    0.279305    0.191400
N       1.302136   -0.580766    0.099491
H       0.421094    2.100612   -0.576564
H      -1.285467    1.764528   -0.242953
H      -0.144857    1.901502    1.095208
H      -0.779456   -0.526368    0.535415
H       0.229583   -1.618509   -1.455290
H       1.614772   -0.574711   -3.067277
H       0.328597    0.640587   -2.935751
H       3.527892   -0.258104   -1.640253
H       3.841755    1.402818   -1.087939
H       3.250683   -0.252797    0.779153
H       2.256175    1.201491    0.734935
