17

C      -0.088882    1.423407    0.064525
N      -0.025159   -0.022460    0.214790
C      -1.200676   -0.743983    0.075152
N      -2.391110   -0.155609    0.089102
N      -3.284271   -1.202736    0.004249
C      -2.662777   -2.390383   -0.072233
O      -3.334331   -3.550219   -0.162087
C      -1.302521   -2.162906   -0.033724
N      -0.347500   -3.215808   -0.073653
H       0.909694    1.839634    0.219701
H      -0.465921    1.744726   -0.917571
H      -0.760760    1.833410    0.822209
H       0.750204   -0.449448   -0.271489
H      -4.270713   -1.018293    0.000516
H      -2.650448   -4.237157   -0.170401
H       0.268617   -3.210186    0.733420
H       0.237581   -3.190542   -0.903415
