20

C      -0.081938    1.485465   -0.015885
N      -0.020200    0.031231   -0.004573
C      -1.355950   -0.557803   -0.064552
C      -1.267627   -2.078123   -0.108502
O      -0.566559   -2.574333    1.019475
C       0.737469   -2.041909    1.073641
C       0.716754   -0.498851    1.152873
C       2.090370   -0.003619    1.208614
C       3.236922    0.349793    1.279321
H       0.928183    1.900304   -0.015300
H      -0.592423    1.816947   -0.925388
H      -0.627815    1.900905    0.852659
H      -1.974479   -0.258207    0.804873
H      -1.857037   -0.190772   -0.967391
H      -2.265364   -2.524560   -0.080120
H      -0.764728   -2.392666   -1.036997
H       1.216140   -2.450737    1.966273
H       1.320967   -2.335699    0.187587
H       0.206332   -0.224002    2.098879
H       4.246069    0.675130    1.341249
