16

C       0.070538    1.518494    0.223923
C       0.005271    0.058196   -0.025084
C      -1.043168   -0.791075   -0.229153
N      -0.507165   -2.049518   -0.408664
N       0.746890   -2.017513   -0.329562
O       1.130194   -0.658194   -0.079081
N      -2.404920   -0.469627   -0.255318
C      -3.262969   -1.222740   -1.185904
C      -3.348967   -1.468383    0.274423
H       0.548215    1.732582    1.185397
H       0.650376    2.024677   -0.554515
H      -0.943785    1.921364    0.232089
H      -4.018709   -0.627047   -1.688715
H      -2.785162   -1.987602   -1.790999
H      -2.928788   -2.397782    0.647413
H      -4.168485   -1.054818    0.854226
