20

C       0.093250    1.461902    0.116863
C       1.321023    0.641017   -0.041708
N      -0.040427    0.003113   -0.005471
C      -0.396412   -0.471015   -1.388130
C       0.584340    0.231750   -2.337029
C       1.811593   -0.284785   -3.171931
C       2.565565    1.003820   -2.671423
C       1.822578    0.414332   -1.430612
C       2.334892   -0.990888   -1.901886
H      -0.159407    1.856007    1.097512
H      -0.216962    2.095796   -0.710283
H       1.955648    0.431648    0.814402
H      -0.319639   -1.560920   -1.383569
H      -1.439681   -0.214509   -1.592044
H       0.166543    1.159791   -2.738321
H       1.807739   -0.669618   -4.192577
H       3.657287    0.953364   -2.670572
H       2.204134    1.963328   -3.050918
H       1.790102   -1.866533   -1.548071
H       3.414532   -1.152292   -1.842786
