16

C       0.003904    1.567602   -0.025609
C       0.079668    0.061761   -0.005792
O      -0.987117   -0.611589   -0.599946
C       1.341176   -0.708417   -0.201519
O       2.478599   -0.024176    0.296370
C       1.975319   -0.093394    1.657537
C       0.671888   -0.737260    1.184846
C      -0.085713   -1.730376    1.857380
N      -0.732037   -2.512166    2.417067
H       0.956246    2.018025    0.259529
H      -0.239947    1.895679   -1.040288
H      -0.776974    1.932876    0.649984
H      -1.741523   -0.603737    0.001894
H       1.470341   -1.485929   -0.945633
H       2.590692   -0.768787    2.259231
H       1.911867    0.888987    2.136028
