22

C       0.031337    1.527810   -0.026200
C       0.055492    0.003602   -0.038920
O       1.116306   -0.598851   -0.086395
N      -1.151583   -0.650321    0.012052
C      -2.464397   -0.019629    0.029388
C      -3.304011   -0.523380    1.213541
C      -3.382494   -2.056071    1.217252
C      -1.976609   -2.669590    1.166383
C      -1.176636   -2.111942   -0.016229
H       1.067227    1.863343   -0.057717
H      -0.501193    1.936393   -0.890901
H      -0.443437    1.924387    0.876757
H      -2.356401    1.063074    0.072906
H      -2.990371   -0.254314   -0.910485
H      -2.844017   -0.174395    2.146811
H      -4.305507   -0.081962    1.160273
H      -3.927356   -2.408652    2.099330
H      -3.955340   -2.389777    0.340543
H      -1.439571   -2.443704    2.096064
H      -2.032992   -3.760501    1.083639
H      -1.636681   -2.443746   -0.960476
H      -0.141718   -2.451120   -0.006751
