21

C       0.346688    1.584527    0.068248
C       0.140054    0.086875    0.087875
O       0.982545   -0.640711   -0.850344
C       1.327654   -1.625439    0.151247
C       0.691726   -0.760609    1.261858
O       1.753049   -0.194908    2.004715
C       2.981059   -0.372925    1.286927
C       2.818547   -1.672095    0.474985
C       3.180376   -2.923740    1.282641
H       1.356174    1.855689    0.383310
H       0.175785    1.971965   -0.940996
H      -0.364385    2.069675    0.745126
H      -0.916083   -0.154530   -0.105768
H       0.885120   -2.603699   -0.066102
H      -0.035525   -1.180356    1.959200
H       3.164736    0.478099    0.618907
H       3.786767   -0.417662    2.025356
H       3.403203   -1.630304   -0.449174
H       2.620765   -2.959357    2.223515
H       2.957179   -3.837371    0.722352
H       4.246192   -2.934099    1.530003
