17

C       0.056885    1.481285   -0.104491
C       1.301632    0.689166   -0.012911
C       1.869353    0.393763    1.382497
C       1.379684   -1.057553    1.551260
C      -0.086466   -0.602473    1.369246
C      -0.153796    0.439569    2.484709
O       1.125203    1.103823    2.386477
N      -0.029130    0.009587   -0.001454
H      -0.200085    2.116127    0.734705
H      -0.261105    1.859337   -1.072407
H       1.939955    0.526490   -0.879178
H       2.928975    0.606842    1.520527
H       1.710281   -1.725307    0.753671
H       1.602455   -1.488059    2.530841
H      -0.859543   -1.369814    1.409726
H      -0.962690    1.167188    2.360425
H      -0.262867   -0.027917    3.472857
