18

C       0.125786    1.197501   -0.768683
C      -0.080047    0.096566    0.253086
O       0.684146   -0.085535    1.178463
C      -1.280136   -0.770508    0.105845
C      -2.028601   -0.989028   -1.162692
N      -2.662250   -0.158415   -0.141200
C      -3.163055   -1.015229    1.010991
C      -2.944597   -2.499667    0.940578
C      -1.797926   -1.595340    1.297299
H       0.888785    1.884718   -0.401702
H       0.464406    0.772000   -1.720453
H      -0.810116    1.732079   -0.956519
H      -1.717563   -0.409177   -2.026068
H      -2.413724   -1.971010   -1.411441
H      -3.883993   -0.547102    1.667657
H      -3.363765   -3.018725    1.797682
H      -2.989894   -3.085987    0.029724
H      -1.247292   -1.645558    2.224474
