12

N       0.108438    1.333300   -0.771674
C      -0.027024    0.197732   -0.252195
O      -1.246741   -0.440168   -0.157003
C      -2.365899    0.226829    0.299578
O      -2.386483    1.296869    0.813821
C      -3.579840   -0.688183    0.064321
O      -4.676440   -0.369914    0.420093
C       1.092774   -0.670410    0.281035
O       2.238975   -0.314245    0.222189
H       1.104292    1.575188   -0.758523
H      -3.348906   -1.639260   -0.453837
H       0.779104   -1.637769    0.718894
