17

C       0.189771    1.329057    0.178718
O      -0.283770    0.059794   -0.221845
C       0.466381   -0.517817   -1.248498
C       1.720415   -1.347451   -0.884677
C       0.836755   -2.537525   -0.331486
C       0.074517   -1.956894   -1.588797
C       1.516219   -2.265941   -2.153019
C       1.590096   -3.495191   -1.249152
O       2.018937   -4.607881   -1.260370
H       1.200396    1.274596    0.609329
H       0.210101    2.036840   -0.664084
H      -0.497157    1.705528    0.939675
H       0.579924    0.179995   -2.092982
H       2.687453   -1.043364   -0.485253
H       0.442195   -2.641390    0.674891
H      -0.859680   -2.343092   -1.994383
H       1.874951   -2.071038   -3.161330
