23

C      -0.667017    1.512647    0.130651
C      -0.161883    0.085845    0.063407
C      -1.043816   -0.921012    0.780030
C       0.561945   -0.437615   -1.170424
C       1.029382    0.438246   -2.323864
C       2.569759    0.427458   -2.341796
C       3.144806    0.875493   -0.974485
O       2.164698    0.931040    0.064998
C       1.323470   -0.180800    0.113806
H       0.077801    2.225102   -0.225530
H      -1.582768    1.634506   -0.459546
H      -0.903488    1.780202    1.166970
H      -2.043420   -0.956688    0.330896
H      -0.624170   -1.931145    0.733210
H      -1.161938   -0.656803    1.837412
H       0.364019   -1.474423   -1.429976
H       0.641788    0.061223   -3.274926
H       0.661374    1.463014   -2.222532
H       2.903939   -0.590221   -2.572451
H       2.959772    1.073060   -3.135319
H       3.972757    0.217609   -0.671064
H       3.539456    1.894200   -1.031658
H       1.696251   -1.009389    0.718494
