14

O      -0.261857    1.255967    0.042028
C      -0.004813   -0.046856   -0.070868
N       0.525827   -0.543437   -1.158869
O       0.609966   -1.926091   -0.830781
C       0.120364   -2.052672    0.404351
N      -0.286250   -0.931785    0.937774
N       0.171773   -3.288694    0.984286
C      -0.983784   -3.838629    1.678058
C      -0.508725   -4.439236    0.395287
H      -0.630743    1.394620    0.922706
H      -0.760823   -4.325197    2.621815
H      -1.897122   -3.251588    1.658709
H      -1.100685   -4.264584   -0.498315
H       0.063761   -5.360692    0.401729
