19

C      -0.037423    1.549271    0.013418
C      -0.027947    0.016221   -0.000780
C      -1.450884   -0.553992   -0.024853
C       0.847749   -0.550890   -1.173510
N       1.959721   -1.307544   -0.584559
C       1.829442   -1.243112    0.678140
N       0.736759   -0.518610    1.158593
C       0.448933   -0.349785    2.488714
O       1.105445   -0.807188    3.397838
H       0.982147    1.943133    0.053144
H      -0.516180    1.928533   -0.895078
H      -0.592025    1.942604    0.871482
H      -1.967362   -0.231589   -0.934645
H      -1.430890   -1.647451   -0.011701
H      -2.039264   -0.210162    0.831978
H       0.264548   -1.208858   -1.827449
H       1.246005    0.253648   -1.801815
H       2.492448   -1.701158    1.401619
H      -0.460868    0.258034    2.648385
