19

C       0.416708    0.799787   -0.615558
O      -0.082861   -0.425181   -0.130211
C      -1.393686   -0.353215    0.403153
C      -2.481892   -0.346968   -0.680439
O      -2.706057   -1.704931   -1.045086
C      -2.093407   -2.582659   -0.086217
C      -1.675974   -1.684372    1.098067
C      -3.009203   -3.656574    0.283466
C      -3.746525   -4.549315    0.604487
H       1.441875    0.619751   -0.947413
H      -0.161948    1.186150   -1.467344
H       0.427014    1.570822    0.170929
H      -1.481389    0.509952    1.079302
H      -3.407997    0.101481   -0.290328
H      -2.183262    0.211562   -1.573792
H      -1.195866   -3.019576   -0.545941
H      -0.801743   -2.063488    1.628077
H      -2.506467   -1.578990    1.800545
H      -4.401636   -5.338982    0.878214
