17

C      -0.117139    1.526044   -0.025678
C       0.069738    0.049821    0.030897
C       0.676898   -0.974167   -0.852131
C       1.398896   -1.666581    0.299497
C       0.328001   -0.989305    1.201117
O       0.582883   -0.624630    2.512978
C      -0.976319   -1.659935    0.732762
N      -0.816826   -0.974644   -0.592270
H       0.795612    2.050954    0.275308
H      -0.371587    1.831808   -1.045169
H      -0.925376    1.850235    0.638824
H       0.973931   -0.900725   -1.890538
H       1.463440   -2.760949    0.311912
H       2.386045   -1.225428    0.461288
H       0.931866   -1.387539    2.986945
H      -1.028140   -2.755337    0.696947
H      -1.862613   -1.255968    1.228522
