20

C      -0.692029    0.983649    0.258981
C       0.599391    0.274034   -0.155790
N       1.282631   -0.389303    0.947648
C       0.897144   -1.640209    1.343436
O       0.056555   -2.292808    0.746898
N       1.564374   -2.132904    2.479236
C       2.630355   -1.401584    3.151333
C       1.190482   -3.382306    2.958319
N       1.743952   -3.902875    3.979651
H      -0.499797    1.753804    1.013820
H      -1.155795    1.467690   -0.606538
H      -1.402119    0.262170    0.671189
H       0.379740   -0.493727   -0.900326
H       1.303672    0.983289   -0.603089
H       1.827103    0.180986    1.571406
H       2.253547   -0.493548    3.638550
H       3.036586   -2.059269    3.919124
H       3.423807   -1.133031    2.446824
H       0.395988   -3.814171    2.350623
H       1.334875   -4.815290    4.167234
