21

O      -0.051147    1.391372   -0.037080
C       0.025359   -0.020600    0.017381
C       0.566963   -0.558091    1.363238
O      -0.048787   -1.833431    1.559101
C      -1.014832   -2.044358    0.509537
C      -1.379539   -0.631983    0.047864
C      -0.370535   -2.828414   -0.644787
C       0.933747   -2.139681   -1.090563
C       0.798603   -0.604666   -1.180448
H       0.837848    1.735050   -0.175749
H       1.658709   -0.675399    1.373165
H       0.282932    0.131714    2.169220
H      -1.853752   -2.595627    0.943496
H      -1.998509   -0.112315    0.784928
H      -1.881257   -0.603085   -0.922172
H      -0.155831   -3.854415   -0.328753
H      -1.089566   -2.890710   -1.471767
H       1.712386   -2.384418   -0.360680
H       1.273401   -2.542580   -2.050061
H       0.271570   -0.308927   -2.095418
H       1.798970   -0.152419   -1.230434
