20

C       0.087455    1.536291    0.192728
C      -0.088012    0.029981   -0.037609
C       0.664886   -0.489401   -1.240783
C       2.228549   -0.376929   -1.433593
C       1.931409   -1.444166   -2.505284
C       0.864863   -2.023458   -1.555320
O       1.117961   -0.701323   -3.465172
C       0.240135   -0.046930   -2.627503
N      -0.696908    0.724298   -2.965957
H       1.140638    1.794098    0.350054
H      -0.280784    2.100382   -0.667051
H      -0.467861    1.857151    1.079036
H       0.243903   -0.524202    0.849253
H      -1.152232   -0.197498   -0.171781
H       2.644750    0.573062   -1.775061
H       2.779161   -0.763851   -0.573800
H       2.679890   -2.023163   -3.040848
H       1.283347   -2.565961   -0.705305
H       0.035552   -2.572824   -2.006421
H      -0.740421    0.817501   -3.982625
