18

C       0.214958    1.596474    0.008887
C       0.086008    0.081610    0.039259
C       0.923235   -0.763625   -0.975627
C       1.391999   -1.684241    0.196105
N       2.775975   -1.643981    0.587866
C       3.047804   -0.577544    1.419464
O       4.116500   -0.171409    1.777930
O       1.855808   -0.023260    1.820080
C       0.751097   -0.695226    1.210119
H       1.258028    1.905455    0.117863
H      -0.164281    1.994150   -0.938205
H      -0.354683    2.060015    0.820933
H      -0.969988   -0.205140   -0.011347
H       0.359810   -1.251159   -1.774140
H       1.753746   -0.207939   -1.419897
H       0.991536   -2.699794    0.178290
H       3.527733   -1.998653    0.019927
H       0.101027   -1.076940    2.000428
