14

N      -0.106302    1.321941    0.021529
C       0.050811   -0.025822    0.010242
O       1.126380   -0.595314    0.014085
C      -1.233085   -0.796312   -0.007236
N      -2.394660   -0.182108    0.003612
O      -3.346440   -1.211660   -0.017123
C      -2.707808   -2.395251   -0.039212
N      -3.509333   -3.503518   -0.122786
C      -1.353431   -2.205771   -0.032579
H       0.712905    1.905126    0.032109
H      -1.025468    1.732128    0.015035
H      -4.451900   -3.368821    0.213870
H      -3.088702   -4.359876    0.203583
H      -0.559669   -2.930764   -0.047444
