15

C       0.290353    1.278085    0.183930
N       0.097700   -0.160010    0.126903
N       0.004798   -0.781024   -1.068045
C      -0.168277   -2.062992   -0.720755
N      -0.372107   -3.056186   -1.650583
N      -0.183208   -2.291213    0.610890
C      -0.014184   -1.069080    1.121990
C       0.036931   -0.812649    2.565177
O       0.189341    0.269324    3.089943
H       0.349758    1.572213    1.229651
H       1.212086    1.541380   -0.340881
H      -0.549829    1.776763   -0.305830
H      -0.011451   -2.847239   -2.569299
H      -0.127148   -3.977006   -1.319502
H      -0.081892   -1.743464    3.152629
