20

C       0.428882    1.358148    0.159058
C       0.133994   -0.067176    0.167409
C      -0.110542   -1.246943    0.185453
C      -0.376613   -2.658278    0.173872
N      -1.274132   -3.218200    1.229787
C      -1.714762   -3.238364   -0.167208
C      -2.884021   -2.342679   -0.504848
C      -1.730416   -4.575098   -0.902834
O      -0.685832   -5.445966   -0.484667
H       1.504887    1.542554    0.253292
H       0.091762    1.832996   -0.769347
H      -0.067624    1.869531    0.991288
H       0.470498   -3.285838   -0.092780
H      -0.900500   -4.137507    1.463932
H      -2.787434   -1.381300    0.001495
H      -2.936951   -2.159658   -1.584224
H      -3.826865   -2.804927   -0.191222
H      -2.713505   -5.047991   -0.766682
H      -1.605308   -4.396719   -1.978279
H      -1.058665   -6.114991    0.093973
