20

C      -0.033440    1.529770   -0.002364
C       0.035088    0.022829    0.018597
C       0.905574   -0.747820   -1.003080
C       1.030763   -1.867560    0.050764
C       0.704198   -0.830304    1.171447
C      -0.623376   -1.568450    1.395938
C      -1.334807   -0.746455    0.276492
C      -1.392211   -2.067196   -0.503233
N      -0.272727   -2.615892    0.339782
H       0.967916    1.974493   -0.019039
H      -0.572038    1.884652   -0.890062
H      -0.558686    1.918898    0.877684
H       0.511470   -0.972235   -1.999160
H       1.876313   -0.251332   -1.116211
H       1.894502   -2.533499    0.034370
H       1.399890   -0.441440    1.913265
H      -1.068114   -1.903436    2.334288
H      -2.219780   -0.119078    0.410252
H      -2.300463   -2.636660   -0.278877
H      -1.233822   -2.077450   -1.585518
