18

C       0.177252    0.721987   -0.509972
N      -0.521661    0.342531    0.716849
C      -1.689118   -0.477836    0.493091
C      -1.393913   -1.912173    0.056480
O      -0.315433   -2.443223    0.114678
O      -2.525618   -2.523898   -0.376047
C      -2.424368   -3.896877   -0.764892
C      -3.281559   -4.751760    0.151184
O      -3.667450   -5.850739   -0.141230
H       1.060744    1.311185   -0.249530
H       0.501922   -0.128467   -1.129533
H      -0.477743    1.358374   -1.115869
H       0.119140   -0.160796    1.321836
H      -2.284520   -0.547948    1.413614
H      -2.341830   -0.012003   -0.252921
H      -2.766540   -3.996983   -1.798075
H      -1.380652   -4.223536   -0.695483
H      -3.512473   -4.275364    1.130584
