15

O       0.069882    0.096078    0.168865
C       0.037220    1.290284    0.158471
C      -1.049227    2.322381    0.109975
C      -0.451855    3.595543    0.645964
N      -0.154707    3.204183   -0.759552
C       1.051778    2.404809   -0.129934
C       0.961088    3.317716    1.089404
C       1.925867    4.304590    1.606747
N       1.560607    3.098224    2.387807
H      -2.108049    2.207229   -0.084484
H      -1.082659    4.448480    0.875892
H       1.965908    2.234875   -0.691570
H       2.949532    4.318527    1.243472
H       1.541571    5.271801    1.922970
H       0.913752    3.327368    3.138364
