16

N      -0.068472    1.293454   -0.035208
C      -0.020201    0.032593    0.005459
O       1.132349   -0.700529    0.063458
C       0.867636   -2.132842    0.037489
C       0.026936   -2.418914    1.294872
O      -1.177925   -1.665520    1.214773
C      -1.239065   -0.869032    0.007067
C      -1.113281   -1.781663   -1.193661
C       0.027272   -2.471730   -1.168906
H       0.875054    1.687685   -0.034845
H       1.841122   -2.619680    0.066994
H      -0.205146   -3.488318    1.371174
H       0.585459   -2.107426    2.186485
H      -2.155258   -0.287539    0.056950
H      -1.882308   -1.847885   -1.952973
H       0.334365   -3.220813   -1.888209
