18

C       0.249300    1.498215    0.036289
C      -0.113497    0.021878    0.046351
O      -0.495923   -0.520854    1.052464
C      -0.015807   -0.754518   -1.300039
C      -1.342111   -0.480894   -2.063424
C       1.188121   -0.296268   -2.155572
C       0.098398   -2.188757   -1.033367
C       0.212035   -3.372944   -0.866790
H       1.335402    1.614380   -0.048531
H      -0.196136    2.028804   -0.810260
H      -0.082330    1.946687    0.973298
H      -1.455600    0.585771   -2.280560
H      -1.339962   -1.025322   -3.011400
H      -2.199466   -0.814727   -1.474602
H       2.131523   -0.446317   -1.623447
H       1.226530   -0.882756   -3.077210
H       1.102657    0.758897   -2.428505
H       0.305273   -4.416556   -0.694137
