23

C       0.484734    1.278885    0.188602
C      -0.071943   -0.136218    0.018800
C      -1.572568   -0.086050   -0.263963
C       0.752228   -1.016165   -0.981173
C       1.341264   -1.820667    0.210120
O       1.261193   -3.240272    0.140327
C       2.814149   -1.550654    0.499796
O       3.216973   -2.148797    1.714081
C       0.344423   -1.114129    1.168950
H       1.558338    1.276287    0.400602
H       0.327974    1.871636   -0.720065
H      -0.013038    1.797714    1.015937
H      -1.783803    0.481160   -1.178122
H      -1.990540   -1.090533   -0.393349
H      -2.113142    0.395673    0.559307
H       0.122875   -1.642721   -1.620446
H       1.474657   -0.494100   -1.617019
H       0.335450   -3.497674    0.181689
H       3.406340   -1.921077   -0.353615
H       2.997404   -0.476508    0.592809
H       2.892864   -3.056770    1.668165
H       0.781256   -0.675584    2.069769
H      -0.474840   -1.774653    1.474438
