15

C       0.058739    1.441987    0.288637
C       0.097931   -0.019904   -0.098637
O       1.103684   -0.569285   -0.478674
C      -1.232036   -0.778489   -0.017674
C      -1.002062   -2.281242    0.202212
O      -0.548088   -2.569401    1.511278
C      -2.215533   -3.053571   -0.125816
N      -3.183932   -3.643193   -0.349866
H       1.006728    1.921109    0.042575
H      -0.767593    1.956541   -0.214121
H      -0.123630    1.527433    1.366689
H      -1.877078   -0.368552    0.767409
H      -1.757628   -0.610625   -0.967372
H      -0.190429   -2.592622   -0.462764
H      -1.279433   -2.432659    2.124648
