22

C      -1.444474   -0.433314   -0.139339
C       0.026961    0.005340   -0.068130
C       0.056067    1.527119    0.004367
O       0.268890    2.256378   -0.928263
N       0.663943   -0.529467    1.117058
C       2.128749   -0.385867    1.268438
C       2.168128   -1.786935    1.933447
C       2.182264   -1.771495    3.457090
C       0.765367   -1.993610    1.299435
H      -1.995585   -0.081590    0.738598
H      -1.917742   -0.034270   -1.040141
H      -1.515258   -1.524385   -0.170056
H       0.540892   -0.292176   -1.001371
H      -0.170813    1.920336    1.022372
H       2.662549   -0.361040    0.304754
H       2.448172    0.472166    1.871101
H       2.943332   -2.452412    1.548199
H       1.406427   -1.103413    3.844970
H       2.001461   -2.772646    3.863048
H       3.148897   -1.425831    3.838986
H      -0.014772   -2.436841    1.928470
H       0.816006   -2.549668    0.349314
