22

C      -0.086539    1.509584   -0.185777
C       0.015050    0.020884    0.048608
N       1.348971   -0.599663   -0.066604
C       0.652402   -0.609438    1.235068
C       1.336370    0.161190    2.351610
C       2.342735   -0.765513    3.055154
C       1.666871   -2.076267    3.463588
O       1.071292   -2.729511    2.351804
C       0.081194   -1.923527    1.735114
H       0.779244    2.038020    0.218307
H      -0.133804    1.723136   -1.258998
H      -0.991663    1.917092    0.277916
H      -0.817245   -0.544482   -0.374209
H       1.286843   -1.513303   -0.510247
H       1.839941    1.046098    1.957087
H       0.580897    0.502528    3.073163
H       3.165169   -0.990381    2.366773
H       2.771836   -0.279402    3.938604
H       2.388621   -2.784687    3.880182
H       0.900962   -1.880273    4.235620
H      -0.739351   -1.723854    2.448119
H      -0.327464   -2.513426    0.907422
