18

C       0.539083    0.672506    0.234318
O      -0.821732    0.899419   -0.090186
C      -1.613690   -0.191974   -0.014346
C      -1.396323   -1.507050    0.327414
C      -2.663571   -2.171123    0.217383
C      -2.941884   -3.623257    0.474707
O      -4.300284   -3.873652    0.810888
C      -3.589174   -1.237916   -0.178196
N      -2.934412   -0.027342   -0.319043
H       1.048561    1.630733    0.124336
H       0.644396    0.316046    1.266900
H       0.988500   -0.063872   -0.443858
H      -0.459309   -1.950342    0.622791
H      -2.753906   -4.229517   -0.420511
H      -2.258593   -3.999691    1.254158
H      -4.522275   -3.267747    1.526388
H      -4.641428   -1.334342   -0.384451
H      -3.345635    0.852127   -0.577961
