21

C      -0.065323    1.563515    0.112602
C      -0.001594    0.028343    0.058396
C       0.758081   -0.529134    1.274565
C      -1.435582   -0.560598    0.055997
O      -2.177780   -0.228623    1.220290
C       0.661347   -0.433415   -1.275275
O      -0.066550    0.007777   -2.391873
C       2.103181    0.016299   -1.405303
O       2.472197    0.683333   -2.343819
H       0.934897    2.008136    0.150655
H      -0.577221    1.961583   -0.767972
H      -0.597224    1.892437    1.010503
H       0.141789   -0.403467    2.168217
H       0.965351   -1.600176    1.163153
H       1.708183   -0.014397    1.446302
H      -1.956945   -0.247454   -0.855541
H      -1.371329   -1.655387    0.043778
H      -2.531875    0.657692    1.106205
H       0.691195   -1.540059   -1.256087
H       0.569792    0.492859   -2.941979
H       2.806352   -0.305989   -0.614803
