19

C      -0.041645    1.548272   -0.025178
C       0.015277    0.026171    0.038761
O       0.727788   -0.502402   -1.101450
C       2.010393   -0.879702   -0.651645
C       2.273764   -0.486621    0.766341
C       0.792541   -0.530861    1.238601
C       0.839523   -2.094331    1.174165
C       2.150658   -1.965449    0.401677
O       3.173588   -2.894913    0.388650
H       0.962003    1.978961    0.052527
H      -0.477174    1.869216   -0.975420
H      -0.654820    1.949719    0.788990
H      -0.998688   -0.390031   -0.001064
H       2.785170   -0.806556   -1.406069
H       3.095821    0.107449    1.141143
H       0.534992   -0.086157    2.198597
H       1.014187   -2.530171    2.160909
H      -0.001404   -2.601423    0.687188
H       3.014296   -3.510752   -0.335573
