16

O      -0.100834    1.379689    0.064148
N       0.066536   -0.018992   -0.001944
C      -1.043548   -0.604457   -0.096897
C      -2.538255   -0.345363   -0.007536
C      -3.068714   -0.876954   -1.353159
C      -2.241935   -2.213797   -1.392893
O      -1.296755   -2.304227   -2.436291
C      -1.499237   -2.043517   -0.046461
O      -2.588768   -1.570429    0.817196
H       0.808581    1.685391    0.149089
H      -2.973538    0.537038    0.454601
H      -4.147893   -1.039982   -1.313861
H      -2.822649   -0.232276   -2.201101
H      -2.891943   -3.096393   -1.356933
H      -1.767327   -2.440504   -3.263984
H      -0.909427   -2.866513    0.349411
