16

C       0.052980    1.534556    0.117882
C       0.022500    0.079825    0.080669
C      -0.005028   -1.122416    0.053882
C      -0.049897   -2.583574    0.021477
C      -1.436953   -3.133362   -0.138053
C      -2.063704   -3.799066   -1.145271
C      -3.366430   -4.027107   -0.628126
N      -3.512021   -3.545285    0.580936
O      -2.280081   -2.974997    0.895937
H       0.539521    1.946536   -0.772959
H      -0.960218    1.948252    0.164586
H       0.600298    1.898243    0.994305
H       0.559895   -2.964350   -0.805532
H       0.387257   -2.990616    0.942901
H      -1.661912   -4.078668   -2.104551
H      -4.202791   -4.527557   -1.095694
