20

C      -0.708471    1.213900   -0.031958
C       0.139163   -0.049291   -0.052014
C       1.526940    0.001463   -0.779395
C       2.140844   -0.718121    0.426768
C       3.050509   -1.860862    0.491902
O       3.456108   -0.545746    0.913663
C       0.886494   -0.473999    1.231549
C       0.804195    0.125240    2.581444
N       0.445463   -1.291759    2.353984
H      -0.129701    2.070710    0.328365
H      -1.077881    1.454054   -1.034649
H      -1.582373    1.100639    0.620112
H      -0.450764   -0.891878   -0.431905
H       1.598366   -0.494453   -1.749484
H       1.904669    1.024385   -0.870448
H       2.929857   -2.587573    1.292881
H       3.530096   -2.225019   -0.415947
H       1.718108    0.276126    3.148383
H       0.010838    0.840662    2.781963
H      -0.567286   -1.395399    2.334362
