17

C      -0.133738    1.577750   -0.020077
C      -0.059258    0.048555   -0.010390
C      -1.344077   -0.555361   -0.334620
C      -2.408575   -1.047688   -0.603205
C       1.176391   -0.609948   -0.697037
C       2.103788   -0.326943    0.527324
O       2.576214   -1.699624    0.637227
C       1.166115   -1.821195    0.284550
C       0.710598   -0.620849    1.169090
H       0.836227    2.020884    0.224874
H      -0.439156    1.943882   -1.004887
H      -0.867479    1.933891    0.709284
H      -3.346943   -1.484292   -0.839990
H       1.450505   -0.616462   -1.751847
H       2.809204    0.482353    0.708126
H       0.729981   -2.811143    0.169905
H       0.456908   -0.639719    2.228848
