15

N       0.578038    0.892087   -1.003274
C       0.175497   -0.194814   -0.227055
C      -1.030463   -0.827843   -0.169712
O      -1.017259   -1.781722    0.787760
N       0.212754   -1.783942    1.404849
C       0.925196   -0.861541    0.796985
C       2.334247   -0.649728    1.199615
C       3.442340   -0.759342    0.234131
O       2.987051    0.520386    0.681444
H       1.550910    1.126499   -0.861752
H       0.334650    0.830644   -1.981110
H      -1.953511   -0.715338   -0.714745
H       2.549487   -0.866853    2.243823
H       4.430021   -1.050460    0.585908
H       3.222033   -0.996362   -0.804933
