23

C       0.128880    1.546021   -0.034244
C      -0.039424    0.023136   -0.008049
C      -1.474920   -0.470284   -0.032055
C      -2.577208   -0.011192    1.000630
C      -3.533760   -0.595186   -0.094941
C      -2.508300   -0.032738   -1.113209
C      -3.190122   -2.093690    0.012319
C      -2.358567   -2.763347   -1.054662
C      -1.676671   -2.003651    0.058165
H       1.188102    1.820402   -0.012184
H      -0.306188    1.983638   -0.938666
H      -0.353057    2.017402    0.828443
H       0.493229   -0.416782   -0.862208
H       0.453227   -0.379111    0.888164
H      -2.578684   -0.495047    1.982234
H      -2.653099    1.074740    1.109514
H      -4.588119   -0.321567   -0.143356
H      -2.578369    1.054632   -1.181108
H      -2.450725   -0.448665   -2.120341
H      -3.753618   -2.703335    0.709883
H      -2.295791   -3.845135   -0.979633
H      -2.350084   -2.409260   -2.078588
H      -1.084554   -2.546272    0.787885
