19

C       0.065585    1.522840    0.039882
C       0.068429    0.005824    0.040025
C      -1.194742   -0.603798   -0.544899
C       1.320065   -0.802087   -0.182439
N       2.518238   -0.181806    0.386979
C       1.949282   -0.102514    1.675246
O       2.364105    0.352099    2.705020
C       0.676919   -0.814653    1.208814
N      -0.062385   -1.833448    1.863213
H       0.984233    1.948588    0.449157
H      -0.059352    1.903642   -0.980316
H      -0.769099    1.904005    0.638089
H      -1.339027   -0.246546   -1.570677
H      -1.154334   -1.694152   -0.552672
H      -2.076165   -0.310506    0.035735
H       1.405144   -1.624680   -0.881302
H       3.003739    0.599417   -0.039506
H       0.556387   -2.485450    2.334866
H      -0.675738   -1.438574    2.569359
