19

C      -0.971584    1.192817   -0.208084
C      -0.075847   -0.028822   -0.092233
C       1.285528   -0.039583   -0.854440
C       1.966945   -0.651994    0.410418
N       3.035748    0.060250    1.066918
C       2.543511    1.067989    1.891049
O       3.188258    1.916282    2.464210
N       1.163139    0.908080    1.931947
C       0.699189   -0.277571    1.241159
H      -0.434051    2.095345    0.098065
H      -1.311126    1.331526   -1.239968
H      -1.861814    1.098435    0.424263
H      -0.641262   -0.936145   -0.333105
H       1.331506   -0.627981   -1.773683
H       1.657272    0.967934   -1.061448
H       2.173275   -1.720903    0.325047
H       3.930138    0.215723    0.630453
H       0.667574    1.316755    2.706290
H       0.278193   -1.022874    1.924615
