19

O      -0.057324    1.312633   -0.013068
N       0.041493   -0.090886    0.040133
C      -1.099128   -0.626918   -0.040298
C      -2.533631   -0.186629   -0.223197
N      -2.877058   -1.610608   -0.501817
C      -1.524838   -2.086448   -0.059971
C      -0.837674   -3.041935   -0.994811
C       0.339582   -3.848552   -0.508898
C      -0.974935   -4.530897   -0.786984
H       0.865755    1.582861    0.038977
H      -2.968718    0.241058    0.691130
H      -2.733111    0.498747   -1.053955
H      -3.643959   -1.970662    0.054375
H      -1.523134   -2.507823    0.958766
H      -0.805305   -2.695204   -2.022814
H       1.163729   -4.009061   -1.194313
H       0.643099   -3.729085    0.525873
H      -1.558458   -4.874598    0.061336
H      -1.056304   -5.162409   -1.664341
