21

C      -0.284919    1.384231    0.011635
C       0.272742   -0.039072   -0.102293
C       0.926478   -0.520042    1.176577
C       0.082952   -1.079597    2.309765
C       0.973727   -1.995512    1.508004
O       0.347952   -2.903405    0.618832
C       1.123197   -4.100269    0.535674
C       2.269214   -3.891487    1.488102
C       2.168495   -2.685024    2.038268
H       0.505635    2.103348    0.253853
H      -0.748866    1.703716   -0.927051
H      -1.041807    1.448279    0.800509
H      -0.524455   -0.736447   -0.378493
H       1.006394   -0.082582   -0.917699
H       1.801957    0.051390    1.480701
H       0.345997   -0.853219    3.337983
H      -0.981647   -1.184623    2.124959
H       0.495503   -4.963349    0.806889
H       1.459952   -4.257436   -0.501629
H       3.038403   -4.631340    1.666145
H       2.836859   -2.233044    2.759420
