21

C      -0.283432    1.503222   -0.053791
C       0.146069    0.026551    0.013824
C       0.870476   -0.435599   -1.209615
C       2.113150   -0.902697   -1.360468
C       2.220723   -1.342473   -2.813799
C       1.401054   -2.668174   -2.954961
C      -0.047471   -2.125448   -2.782167
C       0.236888   -0.597494   -2.595963
O       1.352146   -0.409385   -3.472468
H       0.587535    2.156352   -0.161825
H      -0.945486    1.688934   -0.905322
H      -0.818767    1.793389    0.855435
H       0.779372   -0.132269    0.893889
H      -0.749123   -0.594866    0.162527
H       2.864516   -1.061946   -0.597741
H       3.208016   -1.340859   -3.274410
H       1.547665   -3.098689   -3.948476
H       1.680729   -3.415696   -2.209583
H      -0.643666   -2.289406   -3.682703
H      -0.580941   -2.561029   -1.933875
H      -0.580290    0.072662   -2.861774
