22

C      -0.601564    1.557219   -0.349344
C      -0.178209    0.136329    0.048436
C       0.526971   -0.579375   -1.086386
C       0.696872   -2.048306   -1.250411
C      -0.151784   -3.012598   -0.438535
O       0.172418   -2.896196    0.943292
C      -1.622141   -2.645149   -0.780271
C      -1.539329   -1.681003   -1.989319
N      -0.131133   -1.284548   -2.206812
H       0.261850    2.149503   -0.671731
H      -1.316973    1.545115   -1.178213
H      -1.068776    2.079222    0.491472
H       0.518382    0.183409    0.894112
H      -1.041339   -0.422520    0.412211
H       1.365371    0.010438   -1.461017
H       1.642808   -2.430414   -1.625910
H       0.068603   -4.034512   -0.780276
H      -0.294578   -3.591508    1.417336
H      -2.214563   -3.533509   -1.017938
H      -2.080650   -2.178360    0.095302
H      -1.869950   -2.179640   -2.906024
H      -2.170037   -0.795206   -1.862868
