20

C      -0.158226    1.501353   -0.048257
C       0.089784    0.029489    0.043006
C       0.820706   -0.842687   -0.895865
C       1.767852   -1.799234   -0.181977
O       3.091340   -1.446904   -0.563932
C       1.462923   -1.552906    1.321725
C       0.083490   -0.885780    1.303863
C      -0.918718   -1.761034    0.517131
N      -0.660476   -1.011873   -0.759389
H       0.665166    2.065699    0.404701
H      -0.245259    1.809215   -1.094411
H      -1.083663    1.785506    0.465043
H       1.108977   -0.496798   -1.882481
H       1.562531   -2.841361   -0.468964
H       3.695038   -2.071587   -0.150181
H       1.481122   -2.469363    1.922169
H       2.222280   -0.864979    1.710626
H      -0.245297   -0.471852    2.257433
H      -0.733397   -2.841320    0.475824
H      -1.960978   -1.593372    0.799141
