22

C      -0.666875    3.109515    0.629606
C      -1.078117    1.652534    0.656199
C      -0.132696    0.565388    0.190069
O       1.188578    0.893677   -0.132702
C      -0.497056    0.650908    1.650525
C       0.519136    1.057431    2.672943
C       0.181406    1.015586    4.128000
N       1.165949    0.095766    3.572538
C       0.821458   -1.315365    3.505640
H       0.418699    3.223703    0.667468
H      -1.018292    3.589262   -0.290920
H      -1.094860    3.661844    1.472561
H      -2.125323    1.486110    0.415188
H      -0.544837   -0.262411   -0.387584
H       1.188394    1.321742   -0.995441
H      -1.200720   -0.101232    1.991560
H       1.210348    1.822535    2.334300
H       0.556787    1.769090    4.816598
H      -0.797988    0.613239    4.390350
H      -0.254433   -1.526279    3.397183
H       1.347830   -1.776894    2.664160
H       1.161527   -1.800251    4.426703
