16

O      -0.952566    1.220546    0.550427
C       0.191197    0.906239    0.323033
C       1.358232    1.832715    0.266464
C       1.338781    3.269131   -0.210536
C       0.037576    4.001033    0.141017
C       0.283760    3.694147    1.651474
C       1.592581    2.972869    1.269731
C       2.810616    3.022315    2.010585
N       3.793334    3.074969    2.620551
H       0.458584   -0.156539    0.132496
H       2.287317    1.327592    0.016668
H       2.065094    3.580566   -0.951295
H       0.107001    5.067793   -0.078694
H      -0.874285    3.594782   -0.294660
H       0.487346    4.593213    2.234599
H      -0.462846    3.084875    2.159115
