17

O      -0.112912    1.348221    0.047532
C       0.875407    2.262175   -0.086276
C       2.067706    2.258435   -0.700522
C       2.932994    1.279498   -1.321477
C       3.472640    0.140163   -0.839349
C       3.262473   -0.544003    0.412211
C       2.123428   -0.934808    1.021825
C       0.749064   -0.916132    0.570895
C      -0.118861   -0.002990    0.110623
H       0.487862    3.210722    0.271839
H       2.457047    3.273567   -0.787401
H       3.363548    1.635823   -2.257285
H       4.277520   -0.283964   -1.439578
H       4.183609   -0.889102    0.881686
H       2.262093   -1.544284    1.914790
H       0.265875   -1.889226    0.667023
H      -1.121721   -0.332759   -0.141751
