16

C      -0.052837    1.447303    0.057089
N      -0.016128   -0.002979    0.015694
C      -1.086296   -0.666813    0.015584
O      -2.368860   -0.124777    0.053028
C      -3.282556   -1.168366    0.039543
O      -4.463908   -0.986256    0.065112
C      -2.518200   -2.446843   -0.009611
C      -3.214126   -3.762537   -0.034529
C      -1.217245   -2.124296   -0.023097
H       0.477937    1.833675   -0.820266
H      -1.059410    1.875836    0.086841
H       0.508866    1.784351    0.935514
H      -3.879427   -3.828299   -0.902189
H      -2.503947   -4.591032   -0.070175
H      -3.848983   -3.877662    0.850622
H      -0.355892   -2.775838   -0.056330
