20

C      -0.434577    1.398560    0.251639
C       0.986342    1.103403   -0.160873
C       0.006900   -0.024790    0.002223
C       0.070673   -1.001584    1.186313
C      -0.807712   -2.142714    0.727889
C      -1.137819   -2.037634   -0.558450
C      -0.539036   -0.823087   -1.177615
C      -0.987192   -0.210360   -2.451282
N       0.226951   -1.043562   -2.432870
H      -0.619570    1.696005    1.279073
H      -1.087810    1.871355   -0.473341
H       1.288227    1.387108   -1.165789
H       1.776085    1.204972    0.576273
H       1.093996   -1.355111    1.380496
H      -0.280462   -0.541701    2.117484
H      -1.088475   -2.959406    1.383144
H      -1.719124   -2.747849   -1.133959
H      -1.828016   -0.633053   -2.996088
H      -0.880903    0.866152   -2.568705
H       1.051709   -0.446619   -2.428819
