13

O       0.078635    1.325349    0.239082
C       0.067592   -0.002346    0.003085
C       0.071000   -0.751105   -1.167181
C       0.053779   -2.104335   -0.772772
C       0.040833   -2.157943    0.613143
N       0.049693   -0.837729    1.064645
C       0.021602   -3.278016    1.520202
O       0.013080   -4.448296    1.191872
H       0.090194    1.790593   -0.603315
H       0.084161   -0.355895   -2.171255
H       0.050928   -2.972565   -1.412844
H       0.043997   -0.538448    2.025784
H       0.014824   -2.986001    2.599286
