15

N      -0.126504    1.033001    0.003914
C      -0.338355   -0.198666    0.147507
O      -0.549942   -0.969398   -0.949438
C      -0.816673   -2.329511   -0.726593
C      -2.218995   -2.567226   -0.183703
O      -2.953844   -1.729415    0.253476
O      -2.492519   -3.904738   -0.249762
C      -3.711958   -4.344013    0.221804
N      -3.941128   -5.577387    0.178565
H       0.028814    1.469789    0.909824
H      -0.359812   -0.761185    1.089516
H      -0.712394   -2.841803   -1.685590
H      -0.100030   -2.791668   -0.031828
H      -4.342557   -3.531614    0.582428
H      -4.870064   -5.772085    0.549708
