20

C      -0.016518    1.600303   -0.004293
C       0.034124    0.066368    0.025610
C       0.664853   -0.584086   -1.210045
N       2.097180   -0.287628   -1.426855
C       1.686658   -1.570060   -0.778677
C       1.777195   -1.582115    0.730388
C       2.256188   -0.334520    1.452879
O       3.042323    0.655918    0.885359
C       0.773216   -0.533616    1.236122
H       0.991260    2.018930   -0.014161
H      -0.558094    1.961288   -0.885418
H      -0.529810    1.983952    0.882878
H      -0.995806   -0.313232    0.063630
H       0.051867   -0.730303   -2.094280
H       2.346438   -0.447791   -2.398407
H       1.872953   -2.488048   -1.324445
H       1.895406   -2.552144    1.200663
H       2.565603   -0.508072    2.481292
H       2.921872    0.570237   -0.082231
H       0.170313   -0.722510    2.119668
