18

C      -0.032428    1.568499    0.041220
C       1.514653    1.423714    0.016515
C       1.759848    0.807191    1.410386
C       0.845867   -0.439402    1.228846
O       1.638061   -1.522488    0.735383
C       2.129460   -1.092357   -0.544784
C       1.288215    0.139061   -0.870020
C       0.006622    0.023809    0.008205
H      -0.485667    2.069061    0.902543
H      -0.438248    1.983237   -0.885014
H       2.165436    2.237106   -0.305564
H       2.789887    0.500063    1.606900
H       1.438068    1.477940    2.212942
H       0.313306   -0.790161    2.112527
H       3.205490   -0.873465   -0.491891
H       1.983765   -1.903608   -1.268068
H       1.131369    0.350901   -1.927684
H      -0.844335   -0.597373   -0.269758
