19

C      -0.102014    1.537472    0.027213
C       0.069674    0.009162   -0.024001
C       0.775548   -0.508647    1.201609
N       2.114196   -0.554529    1.169053
C       2.725285   -0.990438    2.269096
C       2.046282   -1.391162    3.419337
C       2.751805   -1.909828    4.642632
C       0.658638   -1.281737    3.337407
N       0.017968   -0.849916    2.252475
H       0.871220    2.033976    0.088478
H      -0.614642    1.899474   -0.868908
H      -0.692014    1.831544    0.900689
H      -0.910979   -0.470084   -0.089684
H       0.655270   -0.265952   -0.905631
H       3.814246   -1.021234    2.236262
H       3.743641   -1.460872    4.749703
H       2.181826   -1.694453    5.551160
H       2.889802   -2.996628    4.594546
H       0.035784   -1.553766    4.189399
