21

C       0.505438    1.792682   -0.204715
C       1.043458    0.363558   -0.297456
C       0.842463   -0.492067    0.943249
C       0.756642    0.074120    2.296109
O      -0.423216   -0.356732    1.607917
C       1.345286   -1.914553    0.789547
C       0.777779   -3.002433    1.725966
C       0.270543   -3.654577    0.425023
O       0.781671   -2.567153   -0.375467
H       1.079906    2.402767    0.499897
H       0.561334    2.282880   -1.180710
H      -0.538914    1.791637    0.118306
H       0.558667   -0.165999   -1.124982
H       2.115854    0.374675   -0.532505
H       1.039392   -0.533154    3.155959
H       0.842485    1.147881    2.445423
H       2.443262   -1.892906    0.721985
H       1.514565   -3.572631    2.292319
H      -0.011602   -2.640855    2.384343
H       0.744104   -4.608192    0.160773
H      -0.816220   -3.755778    0.328155
