17

C      -0.007597    1.460393   -0.191008
C      -0.059336   -0.013957   -0.010550
N      -1.060436   -0.818036   -0.208743
C      -0.522241   -2.047976    0.119057
N       0.731584   -2.001879    0.495197
O       1.047737   -0.637588    0.409993
C      -1.306843   -3.290411    0.045204
C      -0.638886   -4.590086   -0.366981
C      -1.071707   -4.401203    1.053199
H       0.757286    1.732747   -0.924470
H      -0.979469    1.813747   -0.534462
H       0.246292    1.955762    0.750977
H      -2.323651   -3.122558   -0.287009
H      -1.207605   -5.260230   -1.001625
H       0.421580   -4.538968   -0.584240
H      -0.304152   -4.222284    1.797008
H      -1.942540   -4.939518    1.409812
