23

C       0.075389    1.435507   -0.220252
C      -0.041916   -0.079302    0.030788
C      -1.518352   -0.460967    0.184466
C       0.657722   -0.875665   -1.096013
C       2.166022   -0.873549   -0.749424
C       2.266277   -0.528787    0.772147
C       0.796979   -0.494359    1.262272
C       3.075082   -1.552515    1.529973
O       4.029424   -1.321596    2.225795
H       1.113699    1.752573   -0.358989
H      -0.479856    1.722341   -1.119798
H      -0.335504    2.005008    0.620456
H      -2.085024   -0.217440   -0.721117
H      -1.633217   -1.534056    0.372570
H      -1.983214    0.077384    1.017914
H       0.277064   -1.903546   -1.098540
H       0.456245   -0.460101   -2.088296
H       2.623540   -1.843630   -0.972337
H       2.719566   -0.133201   -1.332086
H       2.747485    0.439881    0.924474
H       0.662882    0.168991    2.121882
H       0.490420   -1.500728    1.579836
H       2.703300   -2.599114    1.395421
