22

C       0.443246    1.493125    0.930374
C       0.266933    0.019046    0.635492
C      -0.730388   -0.892561    1.294581
C      -2.086247   -0.206637    1.519209
C      -2.175706    0.085689   -0.013227
C      -0.816185   -0.597508   -0.212488
N       1.319787    2.110532   -0.064817
C       0.672819    2.661507   -1.250161
C       1.225589    3.559026   -0.198253
H      -0.529583    2.009725    0.992235
H       0.926658    1.612498    1.908543
H       1.225812   -0.471186    0.479044
H      -0.412508   -1.802002    1.791585
H      -2.858964   -0.906192    1.845334
H      -2.096242    0.652618    2.197427
H      -2.990613   -0.468228   -0.484434
H      -2.255365    1.133434   -0.322330
H      -0.570722   -1.246331   -1.045226
H       1.199822    2.517983   -2.189236
H      -0.411297    2.591019   -1.322071
H       0.508609    4.084952    0.431232
H       2.164075    4.084108   -0.352932
