16

O      -0.169745    1.266095   -0.159988
C      -0.038208   -0.098929   -0.074832
C       0.445519   -0.898620    1.163015
C      -0.959363   -1.076811    1.745774
C      -1.125281   -1.198065    0.228440
N       0.187191   -2.015112    0.106785
C       0.699457   -1.067404   -0.990868
C       0.146517   -1.307116   -2.368514
O      -0.644506   -0.556174   -2.891198
H      -0.577654    1.457152   -1.014369
H       1.417388   -0.835212    1.654829
H      -1.130131   -1.986866    2.325637
H      -1.404266   -0.199223    2.217688
H      -1.999749   -1.465174   -0.364509
H       1.797209   -1.031118   -1.014386
H       0.504010   -2.220822   -2.890879
