17

C      -0.209722    1.308927    0.050950
N      -0.094317   -0.118336   -0.158955
C       0.658161   -0.646290   -1.159441
O       1.273299   -0.024538   -1.996025
O       0.622408   -2.007601   -1.090659
C       1.371802   -2.692929   -2.109375
C       1.120500   -4.173958   -1.893078
O      -0.243669   -4.512752   -2.048778
H       0.314626    1.803600   -0.767301
H      -1.257891    1.627247    0.045660
H       0.245201    1.617639    0.999507
H      -0.518349   -0.760079    0.489112
H       1.022239   -2.372388   -3.094862
H       2.434892   -2.446314   -2.019221
H       1.678277   -4.743661   -2.643423
H       1.499179   -4.466392   -0.900619
H      -0.737717   -3.921595   -1.470241
