17

N       0.069961    1.294441    0.207430
C      -0.042194    0.036794    0.088272
N      -1.252231   -0.645613    0.027791
C      -1.254528   -2.108305   -0.079706
C      -2.714445   -2.501002    0.078322
C      -3.398960   -2.047978    1.330772
C      -3.518765   -1.222360    0.062859
C      -2.547723   -0.082355   -0.044577
O      -2.812617    1.082067   -0.179662
H       1.057212    1.545834    0.229854
H       0.799586   -0.666319    0.026247
H      -0.871443   -2.423708   -1.059144
H      -0.615810   -2.554726    0.691523
H      -3.057913   -3.393492   -0.428538
H      -4.287653   -2.588335    1.636054
H      -2.803665   -1.654672    2.148987
H      -4.478197   -1.104448   -0.421636
