18

C       0.151934    1.555968    0.064868
C       0.087371    0.044831   -0.035936
C       0.812630   -0.586971   -1.246335
C       1.291504   -1.932568   -0.707258
C       2.510155   -1.956294    0.179836
C       1.135836   -1.825908    0.800841
O       0.739679   -0.522801    1.122067
C       0.568420   -2.875080    1.605507
N       0.121879   -3.726729    2.248502
H       1.191732    1.896729    0.079870
H      -0.353483    2.013178   -0.791354
H      -0.338853    1.902409    0.978069
H      -0.962336   -0.286120   -0.034451
H       0.139790   -0.708681   -2.098667
H       1.651395    0.040362   -1.567707
H       1.010547   -2.845567   -1.216704
H       3.029535   -2.901037    0.296184
H       3.130273   -1.068429    0.241634
