21

C      -0.328250    1.429237    0.003209
C      -0.250106   -0.083439    0.120262
O      -0.422338   -0.651398    1.174902
C       0.059808   -0.845342   -1.164557
C      -0.030445   -2.354786   -1.018233
C      -1.431315   -3.015935   -0.886166
C      -0.924144   -4.170142   -1.771473
O      -1.873955   -4.644814   -2.697383
C       0.220135   -3.242034   -2.270106
H       0.566743    1.830312   -0.484740
H      -1.183036    1.709977   -0.623260
H      -0.444447    1.873546    0.992429
H      -0.611861   -0.485278   -1.956732
H       1.068128   -0.544435   -1.488025
H       0.605263   -2.671335   -0.187029
H      -1.802934   -3.245837    0.112942
H      -2.192214   -2.449368   -1.433781
H      -0.521850   -4.989943   -1.158815
H      -1.480615   -5.372597   -3.189256
H      -0.095540   -2.735137   -3.188243
H       1.217069   -3.666828   -2.416240
