23

C       0.075327    1.514500   -0.030279
C      -0.010469    0.020680   -0.065284
C      -1.100274   -0.759298    0.015665
C      -2.528751   -0.327945    0.147339
C      -0.720337   -2.209879   -0.016022
C      -1.257388   -3.186927    1.015825
C      -1.666313   -3.310309   -0.429741
C       0.753033   -2.235795   -0.434830
C       1.259306   -0.804072   -0.150867
H       0.694046    1.852274    0.812149
H       0.555593    1.902967   -0.938201
H      -0.901791    1.994809    0.061031
H      -2.626444    0.756901    0.226206
H      -3.124268   -0.653074   -0.714986
H      -3.000670   -0.765495    1.036332
H      -0.564982   -3.918315    1.420211
H      -1.998302   -2.837861    1.727537
H      -2.686302   -3.050409   -0.693149
H      -1.256248   -4.130189   -1.011543
H       1.329121   -3.006752    0.084828
H       0.824216   -2.445621   -1.508279
H       1.942970   -0.440240   -0.927859
H       1.817399   -0.743912    0.795409
