20

C       0.059203    1.517753   -0.045459
C      -0.031529   -0.001199    0.046908
C      -1.489453   -0.471133    0.002241
O       0.640157   -0.501993   -1.149217
C       1.139470   -1.757840   -1.099346
N       1.253951   -2.547393   -0.115666
C       0.805354   -2.076828    1.193695
C       0.720816   -0.550408    1.281798
O       2.016270    0.023345    1.398772
H       1.098201    1.840941    0.018821
H      -0.371108    1.862075   -0.989781
H      -0.497163    1.976466    0.777739
H      -1.990763   -0.044165   -0.870658
H      -1.565049   -1.558967   -0.064114
H      -2.024038   -0.142058    0.898996
H       1.490224   -2.054197   -2.087252
H      -0.159989   -2.540736    1.430376
H       1.512697   -2.434518    1.949451
H       0.183562   -0.244821    2.185895
H       2.578428   -0.377388    0.725948
