17

N      -0.010772    1.359806    0.303714
C      -0.012989   -0.010846    0.063265
N      -1.140622   -0.721814   -0.012865
N      -0.667175   -1.994197   -0.050111
C      -0.922276   -3.240077   -0.799204
C       0.629769   -3.493657   -0.699735
C       0.687623   -2.084076   -0.121356
C       1.185172   -0.801802   -0.040548
N       2.482634   -0.240763   -0.084518
H       0.747646    1.824089   -0.181659
H      -0.902558    1.786207    0.087130
H      -1.592828   -3.941873   -0.296426
H      -1.261018   -3.065560   -1.824942
H       0.928628   -4.305729   -0.032500
H       1.121117   -3.622525   -1.666479
H       3.179799   -0.926553   -0.347329
H       2.755457    0.145337    0.815204
