16

N      -0.080824    1.322317    0.098190
C      -0.065705    0.060496    0.085931
O      -1.213439   -0.631326   -0.044113
C      -1.140549   -2.039795    0.058111
C      -1.576783   -2.721476    1.406675
C      -2.586142   -3.535510    0.589932
N      -3.514833   -2.535838    0.023694
C      -2.233054   -2.810963   -0.668573
H       0.869267    1.677813    0.181950
H       0.825347   -0.580356    0.162200
H      -0.148054   -2.390668   -0.248962
H      -0.773918   -3.301079    1.866050
H      -2.029740   -2.047950    2.136189
H      -2.875279   -4.569272    0.724824
H      -4.232851   -3.041043   -0.495310
H      -2.218992   -3.145830   -1.698236
