19

C       0.359016    1.448576   -0.050273
N      -0.054480    0.054133    0.012101
C       0.108907   -0.675885   -1.246104
C       1.234839   -1.687110   -1.215098
C       2.359907   -1.686490   -0.247062
C       1.997110   -1.105581    1.130522
C       0.849806   -2.101168    1.143825
C       0.556646   -0.630611    1.114464
N       1.276376   -2.732600   -0.167864
H       1.437788    1.583347   -0.248853
H      -0.205063    1.965344   -0.832543
H       0.132295    1.936331    0.903900
H      -0.819428   -1.212786   -1.494811
H       0.288056    0.036123   -2.058811
H       1.464376   -2.119175   -2.187579
H       3.372453   -1.961770   -0.525432
H       2.721109   -0.869949    1.898824
H       0.489525   -2.767650    1.917716
H       0.228287   -0.251386    2.080652
