20

O       0.038378    0.144916   -0.709127
C      -0.020852    1.259542   -0.281613
C      -1.141265    2.171029    0.241060
N      -0.087466    3.094014    0.738811
C       1.005442    2.369799    0.019930
C       2.240689    2.039381    0.837193
C       2.122270    1.134359    2.095855
C       3.464675    0.467981    1.688100
C       3.264148    1.022817    0.251191
H      -1.771076    2.553216   -0.574960
H      -1.790576    1.752626    1.017887
H      -0.209867    4.054941    0.442329
H       1.306865    2.848858   -0.927134
H       2.743712    2.977090    1.100829
H       2.065122    1.628486    3.067535
H       1.286816    0.433001    2.012099
H       4.317899    0.935739    2.188032
H       3.546709   -0.615014    1.802247
H       2.764406    0.294250   -0.392806
H       4.135201    1.423288   -0.273524
