15

C       0.208032    1.702966   -0.304064
C      -0.074903    0.278582    0.169027
C       0.431149   -0.758348   -0.834518
O       0.066525   -1.904660   -0.877069
C       0.601955   -0.026359    1.528266
C       0.039609   -1.204434    2.290270
O       1.519385    0.648713    1.926582
H       1.285091    1.878397   -0.362008
H      -0.233099    1.883855   -1.288900
H      -0.203846    2.433183    0.396328
H      -1.147372    0.085342    0.287184
H       1.203891   -0.372048   -1.536016
H      -0.122650   -2.052268    1.618143
H       0.705067   -1.474604    3.110952
H      -0.940780   -0.929241    2.698331
