19

C      -0.002700    1.533478   -0.204450
C       0.051228    0.037170   -0.004296
N       1.379159   -0.601493   -0.026977
C       0.582729   -0.632498    1.213235
C       1.158696    0.100316    2.400837
C       1.921534   -0.820847    3.353361
C       2.835703   -0.133933    4.351001
O       1.794356   -2.023139    3.323384
H       0.836068    2.032754    0.285628
H       0.043144    1.779220   -1.270834
H      -0.935264    1.947670    0.194887
H      -0.754687   -0.500678   -0.503874
H       1.341581   -1.501869   -0.496214
H       0.127556   -1.582105    1.482031
H       1.817273    0.912812    2.079076
H       0.360117    0.571038    2.995021
H       2.323005    0.697086    4.847391
H       3.191542   -0.852488    5.090306
H       3.694627    0.294592    3.820742
