17

C       0.050839    1.416294    0.316022
N       0.014728   -0.020472    0.090238
C       1.306420   -0.676300    0.042118
C      -1.197859   -0.638426   -0.051861
O      -2.255420   -0.027015   -0.008786
C      -1.204445   -2.153966   -0.263778
C      -2.629241   -2.674536   -0.378353
O      -3.017148   -3.660078    0.192220
H       0.601195    1.919010   -0.489016
H      -0.972337    1.785874    0.343851
H       0.550706    1.642447    1.265947
H       1.850939   -0.527266    0.983771
H       1.204120   -1.746588   -0.123866
H       1.920602   -0.260972   -0.767733
H      -0.682131   -2.408606   -1.197043
H      -0.704375   -2.691104    0.546877
H      -3.283944   -2.088591   -1.051087
