16

O      -0.046385    1.438391   -0.010952
C       0.094896    0.030747   -0.013370
C       0.620102   -0.475090    1.335111
N       0.628571   -1.928992    1.367591
C      -0.263086   -2.768774    0.756546
O      -0.260728   -3.968903    0.917600
C      -1.275787   -2.086111   -0.207170
O      -2.019561   -2.773686   -0.854115
C      -1.284351   -0.567875   -0.271441
H       0.829889    1.836507   -0.031886
H       0.786151   -0.296847   -0.805744
H       1.643111   -0.118872    1.499287
H      -0.007419   -0.047295    2.130727
H       1.253103   -2.394084    2.011618
H      -1.966332   -0.200803    0.509728
H      -1.693010   -0.251968   -1.233713
