23

C      -0.209486    1.495666    0.036869
C      -0.059158   -0.025165   -0.043492
C       0.767438   -0.483316   -1.247490
O       2.100612    0.029137   -1.223946
C       0.808602   -2.005947   -1.353003
O      -0.507627   -2.588862   -1.487378
C      -0.131506   -3.287100   -2.693821
C       1.290161   -2.680514   -2.669036
C       1.697325   -1.807468   -3.848976
H       0.769629    1.982808    0.046720
H      -0.762220    1.881408   -0.826788
H      -0.751414    1.793274    0.939450
H       0.419060   -0.405447    0.872176
H      -1.039267   -0.510921   -0.101357
H       0.324273   -0.069576   -2.160370
H       2.505359   -0.252113   -0.395043
H       1.316550   -2.399060   -0.455860
H      -0.193146   -4.375433   -2.570622
H      -0.755836   -2.990764   -3.546855
H       2.065326   -3.427831   -2.481138
H       0.899318   -1.114514   -4.134695
H       2.583899   -1.214816   -3.609462
H       1.920207   -2.428656   -4.723072
