15

O      -0.066033    1.345226   -0.073576
C       0.064048   -0.027334   -0.040173
C       1.171645   -0.796295   -0.772492
C       0.687183   -2.192960   -0.321449
O       0.525818   -2.052631    1.103893
C      -0.287494   -0.890497    1.129819
C      -1.212072   -0.898097   -0.088286
C      -0.785996   -2.135047   -0.815691
O      -1.369758   -2.855284   -1.576248
H       0.614060    1.730922    0.491127
H       1.138851   -0.667850   -1.857534
H       2.170994   -0.554425   -0.396656
H       1.271344   -3.074934   -0.564213
H      -0.586104   -0.547367    2.110080
H      -2.205336   -0.476151   -0.094973
