17

C      -0.056311    1.388102   -0.121429
C      -0.000323   -0.102119    0.131603
O       0.965533   -0.754963   -0.773278
C       1.795052   -1.088805    0.337529
C       0.806934   -0.551553    1.346816
C       1.047652   -2.063629    1.219769
O       0.085185   -2.900822    0.653872
C       1.794543   -2.653528    2.296319
C       2.431174   -3.123092    3.201783
H       0.933052    1.841288   -0.012214
H      -0.420836    1.585092   -1.133894
H      -0.740567    1.864297    0.589207
H      -0.987532   -0.565980    0.030541
H       2.871106   -1.037576    0.219774
H       0.947662   -0.006151    2.269977
H       0.117386   -2.730155   -0.298391
H       2.986625   -3.551162    3.999181
