27

C       0.113559    1.516229   -0.079106
C       0.013596   -0.011585    0.062921
C       0.695669   -0.431304    1.376083
C      -1.447200   -0.533921   -0.031139
C      -2.220056    0.098639   -1.200594
C      -1.492587   -2.074735   -0.134515
C      -2.865958   -2.695819    0.146744
C      -2.845217   -4.217417    0.078680
O      -4.158717   -4.687614    0.346214
H       1.148269    1.845686    0.061913
H      -0.211582    1.867486   -1.061142
H      -0.497834    2.022336    0.678404
H       0.574909   -0.460490   -0.770952
H       1.730196   -0.073624    1.404162
H       0.174270    0.003260    2.237829
H       0.723535   -1.514618    1.517281
H      -1.953534   -0.244359    0.903067
H      -2.348296    1.176127   -1.074005
H      -1.695475   -0.067590   -2.149838
H      -3.219027   -0.335090   -1.296709
H      -1.154279   -2.368195   -1.139048
H      -0.773032   -2.514669    0.564473
H      -3.213920   -2.399457    1.144223
H      -3.618579   -2.338656   -0.564427
H      -2.502835   -4.540214   -0.918674
H      -2.123647   -4.614121    0.812203
H      -4.148348   -5.648079    0.303485
