19

C       0.041771    1.502203    0.215654
C       0.026809   -0.015493    0.002224
C      -1.379766   -0.602921    0.022375
C      -1.603128   -2.124207    0.017792
C      -2.776398   -2.022806    0.930378
C      -1.459994   -2.632965    1.463722
C      -1.318986   -1.418629    2.326316
O      -0.901411   -1.217776    3.432573
C      -2.202043   -0.609119    1.353444
H       1.060557    1.897956    0.169579
H      -0.550981    2.017034   -0.548936
H      -0.372265    1.767766    1.193903
H       0.493853   -0.258526   -0.961152
H       0.639992   -0.501132    0.771328
H      -1.991630   -0.158482   -0.771679
H      -1.451586   -2.821136   -0.797775
H      -3.765785   -2.451277    0.951986
H      -1.247894   -3.668204    1.691672
H      -2.763999    0.253860    1.699041
