14

N      -0.071505   -1.075296    0.208595
C       0.000762    0.069007    0.076582
C       0.047699    1.518708   -0.112523
O       1.286535    1.999487    0.410048
C       1.523669    3.306384    0.202294
C       2.665234    3.960959   -0.127307
C       2.320229    5.356266   -0.103034
C       1.007508    5.429360    0.223564
O       0.499947    4.169467    0.422964
H      -0.036546    1.749641   -1.182466
H      -0.800069    1.981192    0.404833
H       3.616780    3.510040   -0.353047
H       2.973541    6.188473   -0.312807
H       0.304182    6.235297    0.343031
