16

O      -0.138701    1.426029    0.285181
C      -0.031515    0.045408    0.087423
C       0.935630   -0.617550    1.071989
C       2.326160   -0.015364    1.049601
O       2.585425    1.098137    0.658232
C      -1.434016   -0.619668   -0.051518
N      -1.045801   -1.018314   -1.407455
C       0.182646   -0.408593   -1.405248
O       1.050724   -0.292381   -2.227372
H       0.767567    1.771802    0.244897
H       0.562388   -0.495747    2.100536
H       1.012583   -1.696801    0.894949
H       3.128726   -0.664706    1.458831
H      -1.640736   -1.456858    0.622926
H      -2.241245    0.115984   -0.005344
H      -1.568355   -1.459342   -2.149785
