12

N      -0.123348    1.167414    0.486017
C      -0.068841   -0.020676    0.051033
O       1.090088   -0.547673   -0.485488
N       1.145729   -1.854694   -0.962546
C       0.059062   -2.536032   -0.873455
N      -1.165283   -2.134802   -0.361527
C      -1.224786   -0.928374    0.081311
C      -2.534338   -0.418868    0.657078
O      -3.515300   -1.111115    0.710082
H       0.771966    1.648186    0.384295
H       0.124322   -3.550761   -1.250498
H      -2.504482    0.623292    1.015116
