16

O       0.015204   -0.008079   -0.110444
C       0.046249    1.205949   -0.092062
N       1.186560    1.937074   -0.058038
C       2.503023    1.296558   -0.041286
C       3.425226    2.475693   -0.006389
C       2.751266    3.632552   -0.003630
C       1.260921    3.401078   -0.036612
C       3.343121    4.971112    0.026909
O       2.690923    5.991410    0.028281
H      -0.862223    1.840438   -0.101150
H       2.620046    0.637766    0.830538
H       2.654675    0.662853   -0.926287
H       4.504120    2.376200    0.013607
H       0.800885    3.856672   -0.922967
H       0.765453    3.832585    0.842659
H       4.454371    4.990481    0.049440
