21

C       0.001863    1.543918    0.077469
C       0.027564    0.042693    0.003147
C       0.159777   -0.617781   -1.151623
C       0.078354   -2.103568   -1.242100
O       1.288622   -2.773252   -1.709091
C       1.183024   -3.743219   -0.646580
C       0.113269   -2.902170    0.080395
C       0.612842   -2.064661    1.258861
C      -0.099116   -0.704797    1.316150
H       0.822598    1.920811    0.701380
H       0.082919    2.001907   -0.911776
H      -0.927331    1.898459    0.542684
H       0.276594   -0.073659   -2.086580
H      -0.763676   -2.393634   -1.890364
H       0.823335   -4.714225   -1.015412
H       2.136919   -3.890533   -0.125712
H      -0.815651   -3.421031    0.330084
H       0.486403   -2.610089    2.200335
H       1.686414   -1.878672    1.137626
H       0.325427   -0.096169    2.123767
H      -1.160589   -0.836166    1.573715
