20

C       0.018943    1.574791   -0.062320
C      -0.159303    0.064425   -0.181147
N       0.877433   -0.506549   -1.029682
C       0.872978   -1.874430   -1.269201
N       1.360105   -2.355342   -2.411154
N       1.260085   -3.704794   -2.267091
C       0.715551   -4.084432   -1.088012
C       0.501889   -5.515908   -0.717303
C       0.445424   -2.915167   -0.402513
H       1.007495    1.817571    0.338132
H      -0.079361    2.061000   -1.039907
H      -0.740896    2.002355    0.597902
H      -0.076693   -0.389577    0.813396
H      -1.174489   -0.166286   -0.547790
H       1.022129    0.009778   -1.888232
H       1.571704   -4.293909   -3.019051
H       1.444685   -6.074376   -0.686520
H       0.044463   -5.582076    0.271898
H      -0.160431   -6.026944   -1.425863
H       0.011131   -2.834834    0.580123
