17

C      -0.072933    1.580420   -0.005904
C       0.038523    0.052182    0.034382
C       0.655226   -0.489581   -1.259857
N       0.599570   -1.938690   -1.341962
C       1.302130   -2.824302   -0.591457
O       1.407839   -3.997174   -0.825652
O       1.966773   -2.301891    0.512028
C       1.563378   -1.284131    1.352224
N       0.772744   -0.317607    1.233316
H       0.914283    2.037149   -0.132399
H      -0.714369    1.907202   -0.830416
H      -0.492422    1.946016    0.933497
H      -0.971529   -0.369921    0.125272
H       0.102421   -0.100579   -2.118586
H       1.689072   -0.129984   -1.349413
H       0.181097   -2.362380   -2.154252
H       2.102570   -1.424981    2.287521
