19

C      -0.403372    1.451870    0.116428
C      -0.063059   -0.003052   -0.001392
C       0.536906   -0.617833   -1.072977
N       0.668294   -1.960101   -0.781565
C       0.158340   -2.210864    0.466239
C      -0.305041   -1.018982    0.978881
N       0.253912   -3.509370    0.992983
C      -0.674235   -3.883183    2.049813
C      -0.824685   -4.468984    0.691435
H       0.093741    1.917878    0.975768
H      -0.096966    2.001555   -0.778709
H      -1.480591    1.611022    0.247942
H       0.875348   -0.217206   -2.015216
H       1.122114   -2.651009   -1.352664
H      -0.749311   -0.876804    1.952078
H      -0.245635   -4.467260    2.858589
H      -1.418421   -3.151221    2.352728
H      -1.654845   -4.112522    0.086920
H      -0.496510   -5.483692    0.488089
