24

C       0.980587    0.051077    0.562338
C       0.087050   -1.186538    0.761598
C      -1.374544   -0.926801    0.434912
N      -1.652009   -1.249168   -0.774233
O      -2.975377   -0.979082   -1.171281
C      -2.342305   -0.316858    1.468037
C      -3.556426   -1.257163    1.666892
C      -1.677903   -0.135331    2.847926
C      -2.816500    1.071518    0.975543
H       2.023494   -0.188942    0.792536
H       0.928764    0.389816   -0.476566
H       0.684165    0.888054    1.201600
H       0.435240   -1.976885    0.091823
H       0.190450   -1.559541    1.784329
H      -2.974530   -1.300513   -2.078613
H      -3.231170   -2.238070    2.029747
H      -4.228068   -0.829606    2.419625
H      -4.113878   -1.402151    0.743249
H      -0.797057    0.510961    2.810696
H      -2.396489    0.331453    3.529530
H      -1.383921   -1.091354    3.291640
H      -3.301419    1.005649    0.001854
H      -3.528963    1.493691    1.693166
H      -1.973903    1.766287    0.894919
