17

O      -0.089502   -0.005935   -0.014680
C      -0.064153    1.197183   -0.001851
N      -1.045430    2.157021   -0.026175
C      -0.152265    3.319265   -0.003071
C       1.019244    2.303084    0.057748
C       2.255409    2.332438    0.972376
C       2.827201    1.313365   -0.040819
N       2.155473    2.351432   -0.971726
C       2.775407    3.394317   -0.018664
H      -2.048661    2.081931   -0.095881
H      -0.175573    3.923062   -0.915696
H      -0.270887    3.960124    0.876818
H       2.291477    2.321689    2.066542
H       3.912874    1.280480   -0.161125
H       2.371188    0.325265   -0.092308
H       2.282608    4.369757   -0.051007
H       3.857709    3.493565   -0.138989
