19

C      -0.504121    1.440911   -0.167550
C       0.092512    0.058319    0.037716
C       1.339149   -0.324714   -0.812755
N       2.025118   -0.717050    0.422224
C       0.978236   -0.161534    1.300626
C       3.382449   -0.734619    0.582178
N       4.183496   -0.668424   -0.414357
C       3.863842   -0.906395    2.007750
O       5.033740   -0.924417    2.292320
H       0.265418    2.217703   -0.099577
H      -0.974332    1.522537   -1.153194
H      -1.269576    1.658678    0.585033
H      -0.685821   -0.706012   -0.031333
H       1.225539   -1.135609   -1.538074
H       1.827349    0.522688   -1.310643
H       1.264853    0.775421    1.797161
H       0.595553   -0.859194    2.052808
H       5.138788   -0.758009   -0.061211
H       3.079255   -1.026842    2.784071
