20

C      -0.015113    1.511995    0.005077
C       0.022295   -0.016252   -0.031241
N       0.694853   -0.529670   -1.213218
N       0.053709   -0.736746   -2.358909
C       1.016168   -1.112031   -3.206224
C       0.728604   -1.467262   -4.628232
C       2.244207   -1.106067   -2.510060
C       3.614705   -1.452818   -2.992249
N       2.008610   -0.727881   -1.250469
H       0.998608    1.921640    0.007866
H      -0.548358    1.904455   -0.865004
H      -0.528984    1.852593    0.909117
H       0.559352   -0.415433    0.831901
H      -0.987497   -0.432368   -0.039774
H       1.297879   -0.838696   -5.322413
H       0.994313   -2.508195   -4.845904
H      -0.334424   -1.335401   -4.839638
H       3.915632   -0.821341   -3.835930
H       4.340188   -1.317818   -2.187539
H       3.671380   -2.492945   -3.333412
