18

C      -0.076055    1.478697   -0.266178
C       0.042503    0.042388    0.237516
O       0.719751   -0.041226    1.488187
C      -1.319584   -0.621496    0.342130
O      -1.867598   -1.211264   -0.843424
C      -1.541852   -2.069198    0.249895
C      -0.415973   -3.072589    0.051383
C      -0.892066   -4.323668   -0.538662
N      -1.278625   -5.312311   -0.994215
H       0.912258    1.940169   -0.335876
H      -0.548891    1.503213   -1.252581
H      -0.691624    2.079631    0.415446
H       0.660547   -0.527680   -0.462396
H       0.310706    0.587387    2.093350
H      -2.046454   -0.051495    0.928554
H      -2.410270   -2.480759    0.764995
H       0.361646   -2.653877   -0.591768
H       0.046691   -3.293031    1.020542
