19

N       0.665625    0.954998   -0.793101
C       0.200203   -0.119399    0.040698
C       0.105628    0.171178    1.557290
C      -1.201385   -0.662629    1.628567
N      -2.342437   -0.224133    2.402349
C      -1.342083   -0.515543    0.067720
N      -2.178846    0.639835   -0.227336
C      -1.712271   -1.719774   -0.674082
N      -1.985198   -2.667182   -1.281552
H       0.741564    0.665006   -1.763151
H       0.001763    1.723831   -0.752513
H       0.799066   -1.012976   -0.153757
H       0.945434   -0.134394    2.184345
H      -0.096728    1.232757    1.730051
H      -0.990098   -1.707322    1.867016
H      -2.411067   -0.717848    3.283212
H      -2.287503    0.767302    2.605920
H      -2.356803    0.709347   -1.223918
H      -3.074058    0.513561    0.239439
