16

O      -0.648300    0.823942    0.553144
C       0.232714    0.980573   -0.255514
C       1.359235    1.972344   -0.151771
C       1.105391    3.416145   -0.765350
C       0.344521    3.747031    0.539918
C       1.463388    2.841886    1.155182
C       2.723281    3.641187    0.781616
O       3.757093    3.804145    1.374061
N       2.382065    4.101440   -0.499953
H       0.268017    0.364768   -1.183676
H       2.278481    1.496570   -0.512858
H       0.706407    3.581546   -1.764428
H       0.321666    4.798004    0.831718
H      -0.637707    3.285046    0.611264
H       1.417976    2.414358    2.152130
H       3.105385    4.155929   -1.203280
