18

C      -0.162833    1.451116    0.065751
C       0.163677   -0.050783   -0.030474
C       0.842097   -0.564162    1.156397
C       1.400887   -0.925303    2.164655
C       2.064513   -1.449622    3.321051
C       1.245148   -2.020394    4.481898
C       1.965876   -2.953128    3.555631
O       1.252593   -3.740214    2.660231
H       0.749968    2.039270    0.192792
H      -0.667790    1.789536   -0.843850
H      -0.815334    1.652483    0.919452
H      -0.763177   -0.616560   -0.190256
H       0.784149   -0.234794   -0.917099
H       3.007970   -0.977766    3.578254
H       1.629453   -1.867639    5.484500
H       0.167069   -1.974446    4.383014
H       2.860984   -3.447954    3.923983
H       1.050463   -3.194616    1.887599
