21

C      -0.056306    1.525193   -0.088158
C       0.019197   -0.009055    0.008492
C       0.774758   -0.406781    1.292241
C      -1.409923   -0.578789    0.053127
C       0.741404   -0.554788   -1.295234
C       2.173240   -0.056851   -1.380305
O       2.517037    0.908848   -2.011969
C       0.718864   -2.071222   -1.355486
O      -0.031110   -2.708779   -2.048363
H       0.933384    1.984505   -0.150282
H      -0.623970    1.837777   -0.970199
H      -0.561384    1.926263    0.796920
H       0.231254   -0.033882    2.166280
H       0.862865   -1.492021    1.403798
H       1.781180    0.022015    1.328752
H      -1.961286   -0.339643   -0.861530
H      -1.419411   -1.665995    0.170350
H      -1.953475   -0.145478    0.899181
H       0.191952   -0.172643   -2.160178
H       2.916735   -0.648463   -0.799159
H       1.458232   -2.583794   -0.698220
