19

C       0.003901    1.579941   -0.018678
O       1.425760    1.581435   -0.273470
C       1.413628    0.144515   -0.515435
C       2.278694   -0.756036    0.342422
C       2.297436   -0.629130    1.858606
C       1.106507    0.166907    2.380498
C       0.184584   -0.649403    1.406781
C       1.383345   -1.634357    1.189074
C      -0.022863    0.040124    0.045974
H      -0.261722    2.138432    0.885673
H      -0.555081    1.992560   -0.869180
H       1.552676   -0.063019   -1.583724
H       3.171977   -1.196428   -0.086359
H       3.221496   -0.812541    2.394883
H       0.888451   -0.099662    3.418371
H       1.136424    1.254375    2.289744
H      -0.727629   -1.044906    1.852895
H       1.380531   -2.716073    1.202130
H      -0.773913   -0.467031   -0.563884
