19

O      -0.130761    1.459598    0.072044
C      -0.072682    0.060222    0.016287
C      -1.481397   -0.511242   -0.182353
C      -1.596172   -2.001659    0.147576
C      -1.073560   -2.962425   -0.925435
C       0.337044   -2.810586   -1.420277
C       1.164058   -1.756123   -1.459975
C       0.955937   -0.357387   -1.039378
O       1.667562    0.516213   -1.512566
H       0.613201    1.761012   -0.476702
H       0.317624   -0.344943    0.971016
H      -2.130272    0.060101    0.488631
H      -1.829039   -0.302947   -1.201851
H      -1.076759   -2.200629    1.093939
H      -2.648877   -2.248755    0.323057
H      -1.189338   -3.991969   -0.564070
H      -1.724817   -2.906843   -1.812809
H       0.721220   -3.717020   -1.887779
H       2.122186   -1.878527   -1.958588
