19

C      -0.019878    1.376254    0.008387
O       0.034673   -0.037637   -0.060395
C       0.679058   -0.560705   -1.180648
C       2.195197   -0.263840   -1.333041
O       2.636447   -1.285722   -2.247256
C       1.475447   -2.047755   -2.549177
C       0.720739   -2.098767   -1.224526
O       0.611993   -1.307656   -3.401513
C       0.033304   -0.287262   -2.565660
H       0.980667    1.828574    0.046087
H      -0.569205    1.811766   -0.837588
H      -0.548802    1.622731    0.931375
H       2.408098    0.722407   -1.760488
H       2.716563   -0.359791   -0.371908
H       1.775103   -2.961796   -3.057377
H       1.295298   -2.539043   -0.408121
H      -0.267139   -2.555971   -1.298956
H      -1.057654   -0.400678   -2.523807
H       0.276582    0.699314   -2.975790
