23

C       0.000746    1.554556   -0.083812
C      -0.005663    0.029077    0.041267
C       0.806292   -0.472159    1.240476
C       0.813473   -1.992418    1.354410
O       1.399835   -2.574269    0.179780
C       2.311115   -3.608743    0.538842
C       2.001940   -3.946411    2.001342
C       1.591884   -2.571738    2.547634
O       2.721933   -1.746500    2.802090
H       1.020392    1.936595   -0.206402
H      -0.584907    1.887343   -0.946727
H      -0.422409    2.029663    0.808850
H      -1.041169   -0.328029    0.127428
H       0.399271   -0.423316   -0.870254
H       1.840939   -0.123159    1.172204
H       0.394155   -0.056833    2.170196
H      -0.227249   -2.350371    1.430243
H       2.169848   -4.457024   -0.139368
H       3.344856   -3.250576    0.434060
H       1.159992   -4.643690    2.071920
H       2.850552   -4.380569    2.538312
H       0.951966   -2.640461    3.438144
H       3.240355   -2.160654    3.498644
