25

C      -0.026060    1.524601   -0.140933
C       1.384488    2.136899   -0.035556
C       2.267869    1.520323    1.071384
C       1.834784    1.844478    2.518174
C       0.520128    1.169924    2.956695
C       0.426855   -0.305364    2.520271
C       0.895795   -0.574768    1.073428
C      -0.023457   -0.012963   -0.033458
C       2.312914   -0.006186    0.888642
H      -0.673099    1.949102    0.631505
H      -0.478685    1.820091   -1.095068
H       1.906048    1.986716   -0.990897
H       1.307871    3.222589    0.101783
H       3.278767    1.926964    0.939694
H       2.642101    1.508671    3.183554
H       1.758373    2.930062    2.656463
H       0.428069    1.231279    4.047713
H      -0.332824    1.728134    2.561219
H       1.057937   -0.910272    3.185915
H      -0.598665   -0.669024    2.659970
H       0.926971   -1.664118    0.943199
H      -1.049157   -0.376476    0.105295
H       0.321815   -0.432327   -0.988536
H       2.696147   -0.258139   -0.108444
H       3.000340   -0.455671    1.616609
