22

C       0.310304    0.543353   -1.527468
C      -0.058210   -0.043443   -0.177990
C       1.028799   -0.469632    0.738842
N       0.253806    0.753917    1.022261
C      -1.406691   -0.761373   -0.144975
C      -1.407375   -2.023296   -0.999813
C      -2.071385   -0.899419    1.250192
C      -3.082873    0.131017    0.720136
O      -2.457414    0.155225   -0.579959
H       1.247263    1.105996   -1.460598
H       0.446077   -0.231715   -2.287943
H      -0.480963    1.216726   -1.869178
H       0.868863   -1.280061    1.446073
H       2.054615   -0.373085    0.392204
H       0.791464    1.576151    0.759794
H      -0.647056   -2.729833   -0.649484
H      -2.384675   -2.510726   -0.948384
H      -1.205325   -1.791344   -2.049268
H      -2.482477   -1.891092    1.447208
H      -1.465953   -0.563286    2.089454
H      -4.127349   -0.197964    0.662107
H      -3.042433    1.111887    1.207910
