18

C      -0.027522    1.555658   -0.029938
O       1.344029    1.986959   -0.006305
C       2.136375    0.799950    0.058055
C       1.988772    0.131623    1.433105
C       0.588559   -0.388030    1.410083
C       0.051066    0.021121    0.030794
C       1.363746   -0.272829   -0.744352
C       1.854812   -1.593832   -0.166030
N       1.730978   -1.317859    1.286312
H      -0.568418    1.985605    0.822082
H      -0.502283    1.911090   -0.953937
H       3.149673    1.045726   -0.260369
H       2.505470    0.474401    2.320213
H      -0.043202   -0.476032    2.285264
H      -0.848956   -0.497215   -0.302953
H       1.342125   -0.142683   -1.824806
H       1.234026   -2.453915   -0.436613
H       2.896649   -1.821060   -0.414184
