17

C      -0.027219    1.553042    0.028737
C       0.030174    0.048538    0.030738
C       0.934832   -0.814629   -0.931519
C       0.567338   -1.905307    0.095173
C       0.651133   -0.822654    1.190419
O      -0.873943   -2.039518   -0.098026
C      -1.264375   -0.717312   -0.145233
N      -2.431736   -0.271076   -0.299590
H       0.968068    1.987176    0.163949
H      -0.442289    1.919795   -0.914713
H      -0.676735    1.913169    0.832057
H       0.602647   -0.961207   -1.961577
H       1.983680   -0.514209   -0.892304
H       1.017611   -2.893263    0.151640
H       1.673146   -0.522989    1.430338
H       0.060174   -0.976554    2.095920
H      -3.103887   -1.035177   -0.392319
