19

C       0.763889    0.866142   -0.674866
C      -0.241905    0.304869    0.328419
O      -1.154683   -0.607307   -0.270178
C       0.448185   -0.391919    1.495751
O       1.189463    0.511990    2.273766
C      -0.148673   -1.572128    2.181235
C       1.144442   -1.742087    1.375072
C       1.147355   -2.568075    0.141598
O       2.127402   -3.151317   -0.260758
H       1.316834    0.057325   -1.162041
H       0.255269    1.455944   -1.446160
H       1.477681    1.516511   -0.163712
H      -0.804838    1.147086    0.769993
H      -1.411486   -0.253632   -1.127095
H       0.570686    1.002315    2.827352
H      -0.058241   -1.633055    3.259813
H      -1.047766   -2.000005    1.753174
H       2.067454   -1.799913    1.941338
H       0.177027   -2.630897   -0.388144
