19

O      -0.114870    1.514138    0.463939
C       0.058635    0.156056    0.128786
C       0.322896   -0.874970    1.273011
C      -0.874568   -1.727276    0.764501
C      -2.197474   -1.484874    1.559308
C      -2.467260   -0.221241    0.661548
C      -1.248766   -0.572998   -0.233411
C      -3.184901   -2.538406    1.429345
C      -3.999049   -3.414435    1.296764
H       0.740509    1.877777    0.713376
H       0.799622    0.041944   -0.675449
H       1.298569   -1.365398    1.242020
H       0.172192   -0.456064    2.272757
H      -0.662466   -2.749360    0.455137
H      -2.035429   -1.261943    2.619807
H      -3.428257   -0.253613    0.148209
H      -2.372663    0.731693    1.184039
H      -1.458303   -0.728301   -1.291647
H      -4.720239   -4.186450    1.192832
