23

C       0.398585    1.467603    0.133400
C       0.471503   -0.061960    0.126537
C       0.561304   -0.627100   -1.296260
O       1.701759   -0.070880   -1.979148
C       2.643910   -1.070994   -2.252009
C       3.236870   -1.839023   -1.097183
C       2.092371   -2.417315   -1.915758
C       0.662812   -2.184899   -1.440283
C       0.248413   -3.009778   -0.217960
H       1.278538    1.893697   -0.354554
H      -0.487037    1.822674   -0.406145
H       0.345201    1.855569    1.155108
H       1.330672   -0.390397    0.721955
H      -0.420981   -0.477233    0.609969
H      -0.322611   -0.267931   -1.841528
H       3.229194   -0.853485   -3.138428
H       4.215168   -2.285847   -1.243182
H       3.054482   -1.486288   -0.088485
H       2.286145   -3.287104   -2.533512
H       0.008971   -2.475550   -2.271841
H       0.885913   -2.806850    0.646919
H      -0.788870   -2.812977    0.071599
H       0.328861   -4.078031   -0.443182
