19

C      -0.087328    1.625088    0.051873
C       1.437935    1.384348    0.024080
O       1.216773    0.178663    0.826544
C      -0.010643    0.082722    0.032325
C       0.561784   -0.279574   -1.360845
C      -0.269174    0.090180   -2.597044
O       0.065384    1.436283   -2.924296
C       1.441503    1.627320   -2.606779
C       1.728400    0.768694   -1.367485
H      -0.408592    1.988807    1.028199
H      -0.568662    2.155563   -0.769069
H       2.164955    2.076719    0.449028
H      -0.773840   -0.563951    0.465755
H       0.897803   -1.317249   -1.377684
H      -0.027098   -0.581588   -3.435715
H      -1.351222    0.053541   -2.433570
H       2.078363    1.310291   -3.447697
H       1.594241    2.700208   -2.450327
H       2.724242    0.323906   -1.388081
