18

C       0.088723   -0.569613    1.238388
C      -0.323748   -0.142269   -0.173870
C       0.699620   -0.397418   -1.273158
C       0.689215    0.607815   -2.415137
O       0.999964    1.909062   -1.957886
O       2.035029   -0.762853   -0.870810
C       1.262611   -1.734410   -1.578659
C       0.865401   -2.932010   -0.870359
N       0.539028   -3.914946   -0.356894
H       0.225613   -1.649293    1.324208
H       1.023173   -0.087244    1.535214
H      -0.688855   -0.274928    1.948846
H      -1.262447   -0.630877   -0.463505
H      -0.517878    0.935212   -0.181311
H       1.383722    0.279242   -3.201865
H      -0.314650    0.664515   -2.849445
H       1.895458    1.881009   -1.601759
H       1.603543   -1.937690   -2.593512
