18

C       0.074492    1.368018   -0.444391
C      -0.082128    0.080060    0.371057
C      -1.456805   -0.540113    0.216671
C      -1.767563   -1.444845   -0.959733
C      -1.683610   -2.004468    0.436960
O      -0.553832   -2.774188    0.806323
C      -0.510734   -4.040561    0.338669
O       0.373472   -4.794727    0.611257
H       1.071244    1.798690   -0.309926
H      -0.069805    1.178924   -1.513282
H      -0.658627    2.123207   -0.140139
H       0.680120   -0.647293    0.075111
H       0.096820    0.289774    1.432902
H      -2.274488    0.094990    0.549452
H      -2.738071   -1.394252   -1.440570
H      -0.942787   -1.678059   -1.625740
H      -2.593487   -2.324045    0.937108
H      -1.371799   -4.285251   -0.311207
