18

C       0.382024    1.299246   -0.134720
N      -0.029222   -0.089439    0.031054
C       0.550836   -0.670398    1.233318
C      -1.481024   -0.240716    0.000730
C      -2.026304   -0.080957   -1.384942
C      -1.491894   -0.391030   -2.595948
O      -2.370078   -0.094561   -3.550516
N      -3.520935    0.429445   -2.883271
N      -3.282856    0.423289   -1.648551
H       1.472493    1.353130   -0.205553
H      -0.040247    1.709349   -1.055600
H       0.060111    1.943463    0.705095
H       0.217180   -0.173288    2.163774
H       0.288034   -1.730573    1.301164
H       1.641201   -0.592273    1.185765
H      -1.721144   -1.246178    0.367389
H      -2.006108    0.465445    0.669973
H      -0.541430   -0.798276   -2.896043
