18

O       0.158742    1.059937    1.509468
C       0.052714    1.379573    0.340902
N       1.081171    1.446874   -0.550488
C       2.408522    1.030123   -0.212716
C       3.557190    1.708389   -0.907197
C       3.297558    1.969583    0.556132
C      -1.286257    1.774373   -0.240348
C      -1.491224    3.113527   -0.818430
O      -1.364448    1.965588   -1.657874
H       0.821165    1.544566   -1.521773
H       2.509182   -0.028992    0.010912
H       4.408838    1.100661   -1.189944
H       3.318928    2.501474   -1.607939
H       2.878651    2.930400    0.829534
H       3.967274    1.539914    1.291624
H      -2.130134    1.263772    0.217387
H      -2.482294    3.561864   -0.788061
H      -0.655980    3.810304   -0.850454
