11

O       0.113110    1.300079    0.139157
C       0.074838   -0.031157    0.015877
N       0.103916   -0.724008   -1.086233
C       0.039815   -2.047716   -0.659460
C      -0.026766   -2.116883    0.708732
N      -0.003585   -0.805205    1.134448
C       0.046175   -3.141249   -1.563131
N       0.050238   -4.046380   -2.285116
H       0.167210    1.661681   -0.755143
H      -0.086248   -2.948426    1.389055
H      -0.037446   -0.471903    2.083452
