20

C      -0.199063    1.388602    0.225039
C       0.041133   -0.101710    0.126136
C       0.543799   -0.802666   -1.095724
C       1.301185    0.029571   -2.073905
C       2.431350    0.478947   -1.527055
C       2.602372   -0.088322   -0.133818
C       2.997838    0.869392    0.992105
O       3.128621    0.179593    2.221675
N       1.339119   -0.819775    0.161281
H       0.447290    1.971472   -0.431872
H      -1.239582    1.596174   -0.050739
H      -0.059562    1.740557    1.252252
H      -0.687161   -0.670144    0.704455
H       0.086050   -1.733411   -1.424317
H       0.947357    0.233606   -3.077224
H       3.156160    1.133760   -1.997590
H       3.390218   -0.857993   -0.152402
H       3.978135    1.304997    0.766826
H       2.282677    1.699236    1.071795
H       2.382296   -0.429085    2.273713
