17

C       0.132615    1.345249   -0.032298
C      -0.077227   -0.148766   -0.064773
O       0.826135   -0.934313   -0.256439
C      -1.490159   -0.706127    0.152205
O      -1.483401   -2.098728    0.021825
C      -2.044656   -0.317562    1.532792
O      -3.393413   -0.753201    1.660036
C      -3.605906   -1.998304    2.152121
O      -4.698862   -2.467486    2.232730
H       1.096532    1.590522   -0.479690
H      -0.673055    1.874189   -0.550021
H       0.133745    1.693595    1.007827
H      -2.150199   -0.257070   -0.608106
H      -0.552508   -2.336091   -0.129353
H      -1.417632   -0.764335    2.315230
H      -2.063134    0.766770    1.667865
H      -2.674992   -2.496581    2.473145
