15

C       0.053184   -1.115576    0.051987
C      -0.008820    0.084707    0.014823
C      -0.043232    1.510422   -0.023436
O      -1.111273    2.127488    0.667479
C      -1.344487    3.401699    0.054929
C      -0.067536    3.670319   -0.722224
O       1.028066    3.656074    0.251787
C       1.280119    2.299529   -0.082619
C       0.353078    2.285766   -1.263254
H       0.100817   -2.175773    0.087079
H      -2.225690    3.364788   -0.604022
H      -1.507942    4.140740    0.844186
H      -0.044488    4.547896   -1.368192
H       2.262472    1.881971    0.102108
H       0.417109    1.922619   -2.279011
