19

O       0.170805    1.370889   -0.120041
C       0.038260   -0.031005    0.075824
C      -1.385661   -0.483767    0.076305
C      -2.016536   -1.846193   -0.098026
C      -2.861296   -1.652495    1.153438
C      -2.527668   -0.106607    1.088606
C      -3.601542    0.541407    0.247186
C      -3.472939    0.127043   -1.018850
C      -2.252133   -0.718802   -1.140873
H      -0.364827    1.602475   -0.886239
H       0.596321   -0.603031   -0.685162
H       0.513162   -0.235992    1.042692
H      -1.553753   -2.772073   -0.420463
H      -3.919099   -1.934091    1.132081
H      -2.372187   -2.117072    2.013392
H      -2.265982    0.378872    2.027476
H      -4.425342    1.111210    0.659357
H      -4.154613    0.321572   -1.837584
H      -1.776956   -0.893358   -2.100779
