23

C      -0.137976    1.520797   -0.057897
C      -0.027115   -0.002669    0.005310
C       0.777143   -0.493898    1.202753
O       0.103981   -0.097896    2.375368
C       0.881116    0.176417    3.533097
C       1.978346   -0.853139    3.853043
C       1.635005   -2.290391    3.435342
C       1.804574   -2.531849    1.930260
O       0.848040   -1.895381    1.102980
H       0.848401    1.991199   -0.145293
H      -0.729600    1.832870   -0.923467
H      -0.618006    1.909899    0.843622
H      -1.020569   -0.459140    0.073935
H       0.446696   -0.398318   -0.898710
H       1.796282   -0.064032    1.189721
H       1.326904    1.180870    3.463522
H       0.149123    0.204226    4.346979
H       2.920150   -0.565770    3.369071
H       2.170799   -0.804922    4.931300
H       2.309361   -2.984047    3.952717
H       0.613030   -2.550239    3.733189
H       2.822760   -2.224774    1.632430
H       1.706189   -3.599117    1.709119
