15

O      -0.712182    0.912888    0.713678
C       0.106491    0.968815   -0.168723
C       1.345410    1.808328   -0.080256
C       1.765883    2.814855    1.005326
N       2.949219    2.907136    0.012769
C       2.836953    1.369604   -0.047748
C       1.844663    2.907279   -1.074118
C       2.253119    2.550527   -2.423729
N       2.546390    2.269168   -3.505974
H      -0.007126    0.387833   -1.110940
H       1.196894    3.741946    1.099571
H       2.056612    2.416862    1.977618
H       3.186305    0.876145    0.860479
H       3.273283    0.928437   -0.944939
H       1.272426    3.838015   -1.090238
