13

C       0.166895    1.173712    0.188278
C      -0.270720   -0.266572    0.185992
O       0.492183   -1.204997    0.193028
C      -1.773814   -0.521860    0.184603
N      -2.582867    0.448135    0.186904
O      -2.174499   -1.826237    0.299956
C      -1.562744   -2.840748   -0.415114
O      -1.751817   -3.976475   -0.128126
H       1.255804    1.217263    0.166315
H      -0.259150    1.699491   -0.670829
H      -0.218570    1.680177    1.078025
H      -3.550727    0.118524    0.212664
H      -0.981411   -2.476249   -1.270212
