17

C       0.051140    1.540766   -0.139766
C       0.044275    0.035605   -0.093277
C       0.530378   -0.977014   -1.131876
N       0.041084   -1.928324   -0.045178
C       0.553806   -0.937513    1.026152
C      -0.798079   -1.017055    1.765292
C      -1.205531    0.074576    2.630759
N      -1.531223    0.942127    3.322665
C      -1.120964   -0.953606    0.257987
H       1.073707    1.916319   -0.254654
H      -0.534461    1.900860   -0.992577
H      -0.370778    1.974861    0.770641
H      -0.028667   -1.064380   -2.069497
H       1.606965   -1.048667   -1.319286
H       1.557992   -1.029710    1.441925
H      -1.000506   -1.987551    2.226957
H      -2.089569   -1.064762   -0.231098
