15

F       0.377431    0.190235   -0.032729
C      -0.026703    1.467349    0.077607
F       1.076242    2.232989    0.103615
F      -0.697472    1.772713   -1.045884
C      -0.892400    1.675157    1.305741
C      -0.202884    1.259377    2.585604
C       0.782012    2.186560    3.251410
C      -0.560525    1.930344    3.887493
H      -1.163326    2.735578    1.333189
H      -1.815051    1.106294    1.148442
H       0.026338    0.199700    2.638340
H       1.663376    1.752554    3.709337
H       0.952965    3.153473    2.791526
H      -1.295875    2.727961    3.862284
H      -0.602111    1.318859    4.781668
