17

C      -0.001997    1.467221   -0.227755
C       0.008230   -0.051685    0.080754
C       0.826109   -0.345811    1.263131
C       1.511742   -0.563117    2.224920
C      -1.356018   -0.572726    0.228603
C      -2.487943   -0.964680    0.344835
C      -3.834959   -1.503837    0.460614
C      -3.931320   -2.942282   -0.055077
O      -4.874757   -3.368736   -0.662459
H       1.020557    1.824174   -0.372065
H      -0.580877    1.658796   -1.134461
H      -0.452630    2.018506    0.600279
H       0.470582   -0.559477   -0.778278
H       2.112992   -0.765308    3.076572
H      -4.141937   -1.527259    1.517767
H      -4.576079   -0.899227   -0.072155
H      -3.052198   -3.575401    0.193231
