15

C       0.000808    1.513997   -0.052853
C      -0.023619    0.014292    0.071197
C      -1.302248   -0.745368   -0.258186
O      -1.232298   -1.995566    0.443480
C      -0.251310   -1.965616    1.405452
O      -0.168937   -2.796972    2.260216
C       0.627627   -0.777515    1.154613
N       1.210521   -0.713112   -0.205017
H       0.982303    1.899192    0.231391
H      -0.193047    1.820645   -1.086831
H      -0.759095    1.974433    0.586496
H      -2.188626   -0.197657    0.082564
H      -1.411222   -0.957500   -1.327282
H       1.223816   -0.381786    1.967121
H       1.038125   -1.579780   -0.712865
