17

O      -0.125138    1.320962    0.550134
C      -0.363211   -0.046130    0.714587
C      -1.389996   -0.547787   -0.283195
O      -1.857653    0.196636   -1.113971
C      -1.849747   -2.008800   -0.183262
O      -0.737379   -2.846674   -0.001009
C      -1.175800   -3.902539    0.851914
C      -2.143628   -3.178908    1.786419
O      -2.689268   -2.151534    0.955725
H      -0.682424    1.592037   -0.196001
H       0.554312   -0.638913    0.579129
H      -0.732041   -0.270570    1.728244
H      -2.422253   -2.265436   -1.087895
H      -1.683566   -4.685233    0.271257
H      -0.301709   -4.326450    1.348899
H      -2.960520   -3.810027    2.146419
H      -1.622553   -2.738263    2.646049
