16

C       0.029391    1.508930   -0.050013
C      -0.072421    0.016770    0.097554
C      -1.316488   -0.733639   -0.375071
C      -1.174923   -2.154416    0.215645
C      -0.244163   -1.992092    1.424922
O      -0.218447   -2.676525    2.415148
C       0.578336   -0.753279    1.181414
O       1.115093   -0.737993   -0.158775
H       0.986556    1.870247    0.333124
H      -0.046441    1.793776   -1.105193
H      -0.779984    2.008469    0.491868
H      -2.210411   -0.236368    0.017579
H      -1.389582   -0.726653   -1.466938
H      -2.118728   -2.606610    0.524174
H      -0.696086   -2.834406   -0.496018
H       1.197487   -0.323974    1.962758
