18

C      -0.573996    1.409821   -0.013961
C      -0.056592   -0.014983   -0.004645
O       1.116992   -0.177300   -0.844778
C       1.939683   -0.604653    0.244419
C       3.090987    0.328859    0.555903
O       3.229768    1.428376    0.090558
C       0.745711   -0.495032    1.210799
C       0.641884   -0.100721    2.630341
N       0.386943   -1.491146    2.197406
H       0.220814    2.105025    0.267410
H      -0.924925    1.672627   -1.016511
H      -1.415276    1.521698    0.679264
H      -0.843096   -0.721652   -0.307509
H       2.316102   -1.630545    0.123825
H       3.808589   -0.089265    1.300845
H       1.531900    0.031749    3.239001
H      -0.198733    0.525480    2.918872
H      -0.611720   -1.685669    2.165995
