21

C      -0.113971    1.389399   -0.091168
C       1.441207    1.536798    0.025477
C       1.574959    0.011544    0.069760
C       0.038414   -0.133713   -0.047341
C       0.960976   -0.622791   -1.134838
C       0.979844   -0.134038   -2.589053
C       1.144635   -1.440564   -3.397721
C       0.670404   -2.500059   -2.397057
O       1.128811   -2.029907   -1.137966
H      -0.630512    1.790419    0.783577
H      -0.585719    1.807357   -0.987324
H       1.955365    2.048880   -0.794872
H       1.737667    2.011318    0.963253
H       2.268726   -0.553787    0.680732
H      -0.615687   -0.834444    0.457679
H       0.042233    0.370809   -2.840781
H       1.792260    0.571213   -2.781833
H       0.575228   -1.445100   -4.330447
H       2.197559   -1.610163   -3.641418
H      -0.428809   -2.585575   -2.407296
H       1.096977   -3.493138   -2.559262
