13

O       0.144469    1.377405   -0.068447
C       0.103983    0.022402   -0.063795
C       0.085884   -0.784552   -1.158141
O       0.097840   -0.578951   -2.497397
N       0.045516   -2.088440   -0.660487
C       0.015820   -3.274417   -1.398780
O      -0.018381   -4.364276   -0.893003
C       0.041779   -1.972104    0.722139
N       0.076534   -0.722840    1.094817
H       0.145766    1.659771    0.853629
H       0.137678    0.371663   -2.650432
H       0.027603   -3.084517   -2.483362
H       0.012676   -2.844389    1.352917
