16

N       0.237852    1.404106   -0.053082
C       0.084718   -0.000856    0.004622
C      -0.044644   -0.616219    1.451933
N      -1.473508   -0.151873    1.407300
C      -1.416413   -0.668340   -0.000694
C      -1.036075   -2.142346    0.139988
C      -0.120817   -2.107275    1.116765
C      -2.435440   -0.258838   -0.936961
N      -3.216591    0.092491   -1.714081
H       0.236648    1.758015   -1.002314
H      -0.480615    1.872632    0.488560
H       0.779686   -0.502684   -0.668720
H       0.574784   -0.266555    2.276026
H      -2.086906   -0.725665    1.989029
H      -1.388314   -2.954191   -0.478783
H       0.486861   -2.900261    1.527192
