24

C       0.802992    1.213834   -0.414769
C       0.633591   -0.227542    0.016057
N       1.746972   -1.178774    0.125793
C       3.113863   -0.767553   -0.149979
C       1.053094   -0.770207    1.352438
C       1.727336    0.116557    2.385111
C       0.226553   -1.861686    1.990449
C      -0.152366   -3.105757    1.235235
C       0.863049   -3.184055    2.347616
H       1.637242    1.723450    0.069979
H       0.957963    1.276739   -1.497978
H      -0.107214    1.777148   -0.182399
H      -0.250500   -0.691090   -0.423840
H       3.372678    0.265239    0.122082
H       3.798662   -1.434246    0.384157
H       3.305242   -0.886137   -1.221782
H       2.316474    0.926075    1.952657
H       0.972719    0.569768    3.037434
H       2.389834   -0.481089    3.020963
H      -0.510577   -1.484633    2.696066
H      -1.138096   -3.526108    1.401988
H       0.228295   -3.195577    0.224522
H       1.897395   -3.330383    2.054500
H       0.585354   -3.661392    3.280943
