17

C      -0.091776    1.627133    0.222222
N      -0.315427    0.331402   -0.407942
C      -0.208558   -0.833609    0.467311
C      -1.535540   -0.364255   -0.017493
C       1.346765    2.023224    0.124864
C       2.345160    1.476515   -0.609331
O       3.488199    2.195329   -0.374603
C       3.105074    3.149587    0.499519
N       1.858766    3.106291    0.837919
H      -0.714598    2.369782   -0.293393
H      -0.398793    1.646552    1.283427
H       0.259094   -1.711973    0.032373
H       0.029161   -0.661316    1.515692
H      -2.186642    0.119107    0.709306
H      -2.053807   -0.892230   -0.812665
H       2.417372    0.652155   -1.294838
H       3.864262    3.842550    0.826905
