17

C       0.012549    1.485189   -0.010476
N      -0.000062    0.033261   -0.064691
C       0.786102   -0.511285   -1.156779
C       0.505461   -1.999038   -1.245855
O       0.757779   -2.691011   -0.011775
C       0.603999   -2.069748    1.177814
O       0.678757   -2.702952    2.194549
C       0.430557   -0.554481    1.193544
H       1.022506    1.903119    0.162966
H      -0.370712    1.893718   -0.950300
H      -0.637183    1.828384    0.800632
H       0.481650   -0.039924   -2.097250
H       1.872551   -0.330538   -1.030405
H      -0.543251   -2.161912   -1.518056
H       1.143858   -2.482292   -1.989730
H       1.409396   -0.152520    1.529248
H      -0.287512   -0.325689    1.985561
