15

C      -0.175455    1.493529    0.012603
C      -0.020700   -0.014898    0.002353
O      -1.342538   -0.590738    0.012199
C      -1.394316   -1.938497    0.005114
O      -0.435616   -2.660049   -0.008270
C      -2.849972   -2.379365    0.015790
O      -2.898115   -3.782261    0.011278
H       0.810862    1.966976    0.005509
H      -0.728360    1.836011   -0.866627
H      -0.710680    1.825757    0.906584
H       0.511890   -0.366963   -0.886805
H       0.529456   -0.377149    0.876586
H      -3.324174   -1.934294    0.904952
H      -3.338638   -1.928220   -0.862460
H      -3.822782   -4.045622    0.016857
