20

C      -0.088262    1.416539   -0.104988
N      -0.031856   -0.016014    0.080082
C      -1.195029   -0.853391    0.049387
C      -1.403424   -1.676292   -1.203955
C      -0.720685   -2.285267    0.008178
C      -1.414355   -3.382390    0.780209
C       0.800168   -2.215897    0.043442
C       1.148536   -0.719934    0.010336
O       2.255995   -0.233003   -0.080264
H       0.938998    1.785054   -0.114641
H      -0.575507    1.678299   -1.052950
H      -0.638759    1.898397    0.711218
H      -2.034793   -0.533468    0.658436
H      -2.408114   -2.023469   -1.423140
H      -0.810512   -1.418924   -2.076562
H      -2.500270   -3.244291    0.781422
H      -1.207026   -4.365038    0.341164
H      -1.078290   -3.406252    1.823146
H       1.203057   -2.653855    0.963567
H       1.293618   -2.718917   -0.793308
