16

C      -0.007871    1.453590   -0.036999
C       0.009723    0.002156   -0.022369
C       0.025364   -1.208060   -0.008332
C       0.042451   -2.567672    0.006166
C       0.059843   -3.779006    0.022837
C       0.062704   -5.243629   -0.004496
C      -1.365383   -5.810097    0.012037
O       0.816737   -5.749694   -1.103886
H       1.008388    1.862579   -0.065940
H      -0.546381    1.835145   -0.911868
H      -0.501572    1.851262    0.856935
H       0.595245   -5.611039    0.881745
H      -1.926246   -5.459440   -0.860171
H      -1.320443   -6.902002   -0.012400
H      -1.900705   -5.492200    0.911304
H       0.475824   -5.333539   -1.903706
