20

C      -0.083389    1.524456   -0.022547
C       0.082672    0.012420   -0.080291
O       1.129475   -0.505941   -0.426944
N      -1.021510   -0.705491    0.282894
C      -1.057821   -2.160061    0.291426
C      -1.424278   -2.703218    1.702425
C      -2.906121   -2.976695    1.596266
C      -3.321019   -2.973853    0.329405
C      -2.188672   -2.697987   -0.631666
H       0.113830    1.936720   -1.015659
H      -1.073402    1.849988    0.307875
H       0.670610    1.933922    0.654865
H      -1.856214   -0.213431    0.558729
H      -0.066061   -2.471809   -0.034148
H      -0.872652   -3.626844    1.925282
H      -1.158794   -1.985825    2.486270
H      -3.526978   -3.187421    2.459910
H      -4.332784   -3.181887   -0.000446
H      -2.437333   -1.977010   -1.417732
H      -1.877035   -3.619969   -1.141441
