17

C      -0.138237    1.456141    0.044550
N       0.039763    0.013304   -0.006908
C      -0.068037   -0.741955    1.211339
C      -1.497685   -0.844920    1.771464
C      -1.619487   -1.512306    3.127937
O      -2.447137   -0.416709    1.163170
C       0.232414   -0.609741   -1.207115
O       0.303876   -0.060975   -2.284227
H       0.593024    1.907045    0.726385
H       0.018951    1.841430   -0.962742
H      -1.147938    1.710125    0.378953
H       0.292768   -1.763971    1.036938
H       0.584809   -0.320942    1.990584
H      -1.088397   -2.470251    3.146074
H      -1.159905   -0.879057    3.896047
H      -2.671443   -1.664342    3.370766
H       0.332973   -1.707132   -1.084066
