15

N      -0.011437    1.331557   -0.032799
C       0.004985    0.011300    0.035566
N       1.175560   -0.693767    0.095299
H       1.133512   -1.682595   -0.095486
H       1.993725   -0.242348   -0.282087
N      -1.155863   -0.641240    0.091470
C      -2.416852   -0.001464    0.134156
N      -3.552411   -0.682681    0.220475
C      -4.426475    0.360467    0.227573
N      -3.872709    1.568585    0.151268
N      -2.528764    1.327229    0.087196
H       0.848500    1.850293    0.020435
H      -1.009992    1.757654    0.006347
H      -1.180921   -1.648028    0.136653
H      -5.496851    0.222197    0.289962
