18

C      -0.004676    1.496618    0.027452
C       0.012563    0.041730   -0.012513
C       0.033763   -1.161300   -0.038413
C       0.021466   -2.617105   -0.067266
C      -1.407054   -3.220438   -0.019313
C      -1.380204   -4.760466   -0.181042
O      -2.666109   -5.330031   -0.183780
C      -2.095842   -2.889591    1.230675
N      -2.653260   -2.705508    2.226839
H       0.907468    1.890561    0.488627
H      -0.079818    1.922877   -0.978796
H      -0.856343    1.864182    0.609873
H       0.501287   -2.981938   -0.984371
H       0.605798   -3.019507    0.769544
H      -1.997514   -2.803107   -0.842188
H      -0.934302   -4.995488   -1.152459
H      -0.735284   -5.193058    0.599171
H      -3.055351   -5.199586    0.688916
