16

C      -0.013977    1.482296    0.069623
C       1.305208    0.760307    0.020174
C       2.033043    0.460570    1.344708
C       1.055426   -0.442207    2.051190
N       1.031018   -1.022576    3.217914
O      -0.158045   -1.767815    3.205083
C      -0.795891   -1.584770    2.024151
C      -0.075746   -0.748105    1.242581
C      -0.009694   -0.031291   -0.048283
H      -0.344703    1.916727    1.007894
H      -0.301961    2.046056   -0.811393
H       1.910150    0.881098   -0.870454
H       2.983356   -0.053690    1.164996
H       2.260049    1.366753    1.915372
H      -1.724872   -2.122091    1.916352
H      -0.351699   -0.492191   -0.966638
