17

C      -0.183634    1.267597   -0.711483
C      -0.032796   -0.041614    0.014363
O       0.988804   -0.387003    0.570380
C      -1.243498   -0.969832    0.042892
N      -2.326929   -0.579208   -0.518468
N      -0.973391   -2.135822    0.699245
C      -1.966576   -3.140833    0.962004
C      -2.371429   -3.922592   -0.290833
O      -3.458942   -4.405425   -0.453471
H       0.748528    1.828958   -0.645288
H      -0.451936    1.085920   -1.756173
H      -1.012199    1.838937   -0.283915
H      -3.082224   -1.262481   -0.444901
H      -0.054177   -2.183341    1.113741
H      -1.547603   -3.866119    1.669511
H      -2.875018   -2.727887    1.420290
H      -1.555330   -4.019634   -1.042426
