15

C      -0.021669    1.576778   -0.006380
C      -0.020752    0.081455   -0.018750
C       0.005468   -0.782144   -1.100955
N      -0.057107   -0.543955   -2.476646
N       0.055853   -2.046400   -0.612456
N       0.027716   -2.079749    0.759334
C      -0.010656   -0.803109    1.089253
O      -0.011868   -0.399531    2.379464
H       0.451499    1.986413   -0.907160
H      -1.031249    2.002662    0.052847
H       0.536271    1.955695    0.855182
H      -0.066555    0.446422   -2.682713
H       0.697263   -0.982820   -2.992579
H      -0.103695   -2.896609   -1.123069
H       0.035471   -1.197312    2.921206
