17

C       0.027147    1.240628   -0.636600
C       0.020763   -0.200856   -0.220479
C       0.624556   -1.451671   -0.954941
C       0.012034   -2.078007    0.349517
C       0.590096   -0.852849    1.130457
C       2.067464   -0.742872    1.392924
O       2.913334   -1.529077    1.045679
C      -1.168957   -1.142376    0.057472
O      -2.360206   -1.130010    0.032031
H       1.044827    1.623754   -0.761417
H      -0.495963    1.358831   -1.591120
H      -0.486053    1.863591    0.102856
H       0.157324   -1.729731   -1.901501
H       1.709880   -1.490579   -1.009220
H       0.028121   -3.117855    0.662882
H       0.048837   -0.540049    2.030860
H       2.341806    0.165739    1.976992
