16

O       0.113552    1.366144   -0.175565
C       0.044973   -0.050830   -0.010646
C       0.749464   -0.505291    1.252670
C       0.105142   -0.613364    2.416351
C      -1.345724   -0.303833    2.534861
N      -1.764245    1.011709    2.003398
C      -2.162136   -0.216578    1.276820
C      -1.424396   -0.500657    0.002996
O      -1.945732   -1.084972   -0.917251
H      -0.327254    1.738738    0.604708
H       0.508011   -0.483497   -0.900278
H       1.819064   -0.680770    1.191355
H       0.628892   -0.899400    3.323512
H      -1.856481   -0.660731    3.424109
H      -2.563081    1.373263    2.518678
H      -3.201262   -0.529525    1.292197
