20

C       0.128267    1.617199   -0.238740
C      -0.054511    0.128197    0.068376
N       0.487663   -0.728201   -0.975884
C       1.752694   -1.178459   -0.657457
O       2.561722   -1.686277   -1.383455
O       1.953614   -0.963328    0.675201
C       0.744387   -0.440693    1.286974
C       1.164893    0.580205    2.335534
C      -0.007723   -1.614075    1.922427
H       1.183946    1.870783   -0.374096
H      -0.399928    1.872705   -1.163411
H      -0.282339    2.242825    0.559035
H      -1.120842   -0.079176    0.213988
H       0.296278   -0.558210   -1.950617
H       1.780017    1.371103    1.902251
H       0.287028    1.034423    2.805156
H       1.749260    0.085383    3.115853
H       0.640429   -2.132592    2.633597
H      -0.894629   -1.257829    2.456202
H      -0.326527   -2.328291    1.158397
