21

C      -0.400665    1.503207   -0.084548
C      -0.101066    0.022601   -0.028809
C       1.254704   -0.581891   -0.392588
C       2.498109    0.248788   -0.641998
O       3.307497    0.282331    0.536825
C       2.626136    0.901149    1.574527
O       1.417620    0.251931    1.961213
C       0.771092   -0.594220    1.039755
C       0.375250   -1.886196    1.711319
H       0.402778    2.110005    0.336581
H      -0.571970    1.837425   -1.114050
H      -1.304202    1.726935    0.492265
H      -0.940314   -0.599240   -0.331746
H       1.228895   -1.534290   -0.912576
H       3.119622   -0.201744   -1.417988
H       2.264441    1.278693   -0.951891
H       3.282313    0.886431    2.449528
H       2.394221    1.948005    1.304977
H      -0.259962   -1.685500    2.580481
H      -0.178107   -2.531757    1.023180
H       1.262795   -2.425894    2.057188
