13

N      -0.013501    1.369406   -0.056061
C      -0.022281    0.008944   -0.032389
C      -1.221405   -0.725731   -0.001940
C      -1.059773   -2.095113   -0.020196
F      -2.135283   -2.868807    0.007097
N       0.099059   -2.724973   -0.062835
C       1.162468   -1.912208   -0.087314
O       2.362988   -2.504599   -0.128755
N       1.178705   -0.589535   -0.071644
H       0.876695    1.814534    0.096889
H      -0.839606    1.878347    0.205772
H      -2.199560   -0.266995    0.027393
H       2.193153   -3.456291   -0.133041
