15

C      -0.048853    1.514145    0.003188
C      -0.003380    0.015449   -0.043824
N      -0.039467   -0.620896   -1.177761
C       0.003629   -1.981011   -1.206770
C       0.090871   -2.706700   -0.052780
N       0.208632   -4.064243    0.062967
O       0.120354   -2.087924    1.136627
C       0.077083   -0.680549    1.239470
O       0.104691   -0.204987    2.340992
H       0.842276    1.918645    0.495978
H      -0.113303    1.907398   -1.012186
H      -0.908432    1.862933    0.586249
H      -0.026382   -2.468744   -2.173141
H      -0.077654   -4.612679   -0.732230
H      -0.042384   -4.449202    0.961286
