18

O      -0.034020   -0.011720   -0.084216
C      -0.012048    1.193942    0.004263
C      -1.275798    2.024435   -0.026391
N      -1.569701    2.868237    1.167176
C      -1.079617    3.501922   -0.060784
C       0.377815    3.957862   -0.057448
C       1.180465    3.192999    1.029547
C       1.268921    2.012981    0.014379
C       1.150926    3.105900   -1.107422
H      -2.114268    1.554504   -0.530878
H      -2.579122    2.971367    1.238943
H      -1.773841    4.093606   -0.651929
H       0.463548    5.045807   -0.097435
H       2.166635    3.641855    1.170725
H       0.702496    3.018473    1.991895
H       2.134013    1.349836    0.024308
H       0.639168    2.842257   -2.037417
H       2.133962    3.524115   -1.337296
