20

C       0.041531    1.544103    0.079934
C       0.019855    0.041131    0.031412
C       0.549660   -0.702150   -1.226254
C       0.379992   -2.180637   -0.740596
C      -0.204958   -1.917897    0.674919
C      -0.488235   -3.072244    1.596323
N       0.597276   -0.744557    1.184224
C      -1.232825   -0.816173    0.326851
O      -2.414577   -0.666810    0.368709
H       1.058037    1.931788   -0.051509
H      -0.580051    1.958017   -0.720479
H      -0.343619    1.905092    1.036911
H      -0.029555   -0.476567   -2.126753
H       1.593018   -0.436115   -1.424623
H      -0.292354   -2.766623   -1.374511
H       1.331033   -2.719062   -0.674710
H       0.416160   -3.661377    1.785679
H      -0.873820   -2.715602    2.554754
H      -1.233837   -3.738513    1.150773
H       1.602658   -0.894709    1.078349
