17

C       0.132945    1.622705   -0.065493
C       0.129338    0.127519    0.082265
O      -1.200723   -0.378923    0.449284
C      -0.708303   -1.051108    1.544712
O      -1.325822   -1.659568    2.358042
C       0.744123   -0.723011    1.235497
C       1.310946   -1.730429    0.180665
C       0.811958   -0.788146   -0.962524
O      -0.062958   -1.282972   -1.936161
H       1.147131    1.990213   -0.248306
H      -0.497201    1.917502   -0.911009
H      -0.256472    2.104005    0.836083
H       1.389159   -0.355362    2.029744
H       2.394252   -1.855592    0.220709
H       0.834581   -2.712456    0.199149
H       1.661053   -0.249939   -1.410412
H       0.439576   -1.819725   -2.557245
