13

C      -1.028104    1.531133   -0.754002
C      -0.106591    0.400832   -0.254933
C      -0.858684   -0.692505    0.357513
N      -1.434826   -1.586615    0.812143
C       0.837454   -0.067195   -1.399310
N       0.987240   -1.404598   -1.547388
O       1.408886    0.760959   -2.076544
H      -0.408588    2.285012   -1.240840
H      -1.752797    1.149929   -1.477785
H      -1.571483    1.981112    0.079343
H       0.562927    0.809414    0.512768
H       0.460780   -2.070100   -1.006584
H       1.592673   -1.733701   -2.281622
