17

O      -0.058116    1.302539    0.300689
C       0.044932   -0.020244    0.014244
C       0.201960   -0.727063   -1.153164
C       0.230675   -2.108431   -0.782639
C       0.083871   -2.197702    0.580222
N      -0.022922   -0.896459    1.057356
C       0.077220   -3.360470    1.491921
C      -1.203557   -3.857270    2.077968
N      -0.507669   -4.634589    1.041169
H       0.011000    1.795160   -0.522487
H       0.287189   -0.312961   -2.145774
H       0.370621   -2.944557   -1.451220
H      -0.172782   -0.627673    2.014645
H       0.977839   -3.507274    2.088836
H      -1.206169   -4.311087    3.065143
H      -2.115922   -3.332462    1.808597
H      -0.970327   -4.476704    0.148634
