15

C       0.002994    1.508732   -0.099261
C      -0.001845   -0.005138    0.045774
O       0.009355   -0.546800    1.131477
C      -0.020710   -0.807016   -1.191667
C      -0.028699   -2.185581   -1.347330
C      -0.046769   -2.375267   -2.739162
O      -0.059840   -3.561044   -3.375714
N      -0.050058   -1.224573   -3.411621
N      -0.034097   -0.282632   -2.448843
H       0.882965    1.843559   -0.660643
H      -0.887585    1.851326   -0.638800
H       0.017222    1.959618    0.892982
H      -0.022223   -2.923004   -0.563918
H      -0.070859   -3.379089   -4.323897
H      -0.033190    0.685597   -2.718690
