20

C      -0.039080    1.553575    0.481258
C      -0.035908    0.112650   -0.059211
C      -1.396606   -0.472596   -0.199108
C      -2.164675   -0.909412   -1.230293
C      -1.869999   -0.961438   -2.692005
N      -3.389981   -1.352996   -0.725513
C      -3.311670   -1.169059    0.552656
C      -4.329472   -1.463795    1.594903
O      -2.130366   -0.636614    0.957461
H       0.982941    1.930032    0.585536
H      -0.584391    2.222195   -0.191663
H      -0.520495    1.597518    1.462075
H       0.448333    0.082032   -1.040411
H       0.568839   -0.519959    0.604163
H      -1.937509   -1.988196   -3.067644
H      -2.593627   -0.364486   -3.257675
H      -0.868948   -0.582403   -2.913173
H      -3.947065   -2.180378    2.329498
H      -4.613107   -0.556407    2.138563
H      -5.214446   -1.883065    1.115813
