15

C      -0.061819    1.457412    0.010529
C       1.397393    1.873367   -0.001218
C       2.188932    0.785784   -0.014673
C       1.365446   -0.407526   -0.013275
C       1.378715   -1.788601   -0.020724
C       0.016714   -2.204991   -0.009978
C      -0.782444   -1.075939    0.003845
N       0.049303    0.007570    0.001546
H      -0.591160    1.815991    0.902833
H      -0.608177    1.825672   -0.867460
H       1.706185    2.908798    0.001409
H       3.270111    0.780061   -0.025052
H       2.250398   -2.424128   -0.032463
H      -0.342947   -3.223037   -0.012048
H      -1.855640   -0.970216    0.014711
