14

N       0.123923    1.272447    0.085005
C      -0.027242   -0.082168   -0.025202
N      -1.086760   -0.755394    0.186013
C      -0.772210   -2.137555   -0.156640
C       0.752964   -2.124216   -0.535108
O       1.098698   -0.716978   -0.465706
C       1.601628   -2.901162    0.356434
C       2.276765   -3.570701    1.091068
H       1.062344    1.585720    0.279617
H      -0.595722    1.721063    0.629951
H      -0.963234   -2.807654    0.686910
H      -1.380729   -2.483432   -1.000328
H       0.917138   -2.441410   -1.569520
H       2.878751   -4.158907    1.739026
