9

O       0.049425    1.476614    0.129035
C       0.015897    0.087742    0.066825
C       0.681867   -0.421797   -1.224773
O       1.148710    0.360252   -2.008057
C       0.691883   -0.553941    1.214375
N       1.226516   -1.081730    2.091905
H       0.596845    1.759616   -0.622837
H      -1.025593   -0.275462    0.058267
H       0.699751   -1.516260   -1.375509
