17

C      -0.129294    1.352055   -0.267169
N      -0.047609    0.012928    0.277744
C      -1.049609   -1.052189    0.190805
C      -0.896584   -1.822776   -1.088924
C       0.058252   -2.083527    0.081881
C       0.258386   -3.414663    0.741841
C       1.012748   -0.885770    0.117799
O       2.197151   -0.709684    0.021834
H       0.886185    1.752664   -0.317656
H      -0.564260    1.364453   -1.276537
H      -0.729112    2.001170    0.378410
H      -1.919682   -1.059834    0.834849
H      -1.613119   -2.620443   -1.269572
H      -0.550826   -1.318601   -1.987065
H      -0.655754   -4.015675    0.707408
H       1.048907   -3.980679    0.237998
H       0.549583   -3.298275    1.790709
