19

O       0.264398    1.355345    0.073287
C       0.076738   -0.041446    0.220480
C      -1.318202   -0.497436   -0.225890
C      -1.456313   -2.005235   -0.141665
C      -1.915242   -2.676585    1.101225
O      -2.249370   -1.841569    2.167316
C      -2.817671   -2.728091   -0.141209
C      -4.093589   -1.981531   -0.169364
O      -5.080421   -2.369296   -0.750963
H      -0.329302    1.798130    0.688004
H       0.843065   -0.510424   -0.407412
H       0.256857   -0.369204    1.255570
H      -2.063237   -0.008860    0.408843
H      -1.489364   -0.157255   -1.253210
H      -0.697441   -2.545566   -0.702521
H      -1.449608   -3.619854    1.384454
H      -2.919386   -2.280583    2.701992
H      -2.865970   -3.672558   -0.673131
H      -4.106990   -1.028428    0.398491
