14

O      -0.920357   -0.022601    0.012935
C       0.310770   -0.539493   -0.404628
C       1.152836    0.556193   -1.047683
O       0.699587    1.665737   -1.182926
C       1.142533   -1.181837    0.732425
O       2.188948   -1.726945    0.491708
N       0.547448   -1.025078    1.971807
C       1.020408   -1.462864    3.208893
O       2.051935   -2.038868    3.408727
H      -0.914591    0.910554   -0.266808
H       0.183384   -1.336512   -1.154083
H       2.171184    0.271229   -1.361005
H      -0.347742   -0.550652    1.940171
H       0.298156   -1.199412    4.006919
