21

C       0.138703    1.587582    0.004870
C       0.203021    0.060371    0.091029
C       0.676002   -0.575279   -1.225814
N       2.044146   -0.143817   -1.555176
C       2.776102   -1.182582   -1.446713
N       4.142726   -1.231376   -1.518995
O       2.199097   -2.383062   -1.176771
C       0.767894   -2.136992   -1.243044
C       0.077995   -2.930472   -0.148140
H       1.117440    1.996384   -0.257367
H      -0.573872    1.908345   -0.763856
H      -0.178817    2.024323    0.956819
H       0.885682   -0.234095    0.897758
H      -0.786319   -0.337278    0.350198
H      -0.007293   -0.247037   -2.019646
H       4.556973   -0.408140   -1.927446
H       4.525622   -2.104985   -1.846161
H       0.436015   -2.505886   -2.222408
H       0.411479   -2.618982    0.844610
H      -1.006411   -2.797056   -0.209052
H       0.293632   -3.996515   -0.263296
