17

C      -0.285229    1.515163   -0.169763
C      -0.160525    0.025745    0.035597
C       1.091198   -0.697804   -0.308528
N       0.724206   -0.530816    1.098146
C       1.500035    0.329696    1.863274
N       2.694187    0.836156    1.598969
C       2.974646    1.547077    2.729212
N       2.044985    1.521680    3.665942
N       1.100369    0.729157    3.091005
H       0.686409    2.010137   -0.100571
H      -0.704945    1.718035   -1.160286
H      -0.954379    1.962896    0.573045
H      -1.094338   -0.528042   -0.032755
H       1.054525   -1.722486   -0.666370
H       1.932033   -0.108049   -0.661334
H       3.893411    2.099351    2.860340
H       0.263471    0.479742    3.590954
