19

C       0.008778    1.526229    0.058575
C      -0.008821   -0.000942    0.000016
C       0.693675   -0.547009   -1.272954
N       0.899315   -1.986908   -1.254638
C       1.544801   -2.413445   -0.010030
C       0.828179   -1.880780    1.230275
O       0.673036   -0.460596    1.161157
C      -1.413573   -0.491451    0.013378
N      -2.495248   -0.899562    0.000867
H       1.046587    1.868533    0.049373
H      -0.518683    1.952560   -0.798555
H      -0.467050    1.874833    0.977452
H       0.125824   -0.266996   -2.165282
H       1.673074   -0.054854   -1.324160
H       0.007655   -2.462507   -1.363398
H       1.589084   -3.506990    0.016604
H       2.576690   -2.039373   -0.019234
H      -0.157773   -2.358374    1.336786
H       1.401536   -2.066627    2.142922
