21

C      -0.181902    1.554274    0.083019
C       0.081917    0.051850    0.011270
C       0.982553   -0.380071   -1.162779
O       1.622544   -1.572303   -0.735042
C       1.997430   -1.326685    0.608939
C       0.816716   -0.546764    1.252511
O       1.274561    0.476988    2.119819
C      -0.110097   -1.477926    2.033334
O       0.608195   -1.893570    3.193066
H       0.750723    2.113275    0.191637
H      -0.687018    1.895723   -0.826936
H      -0.814814    1.806198    0.937810
H      -0.877422   -0.470106   -0.094280
H       0.434851   -0.598360   -2.083065
H       1.728171    0.404441   -1.378762
H       2.208911   -2.283834    1.090920
H       2.892291   -0.687673    0.665789
H       1.430337    0.045241    2.969991
H      -1.024031   -0.933267    2.312116
H      -0.389793   -2.335225    1.404020
H       0.000149   -2.324298    3.799714
