23

C      -0.041360    1.528937   -0.470455
C      -0.018369    0.181488    0.259443
C      -1.379263   -0.473980    0.298674
N      -1.802325   -1.182047   -0.935476
C      -1.579656   -1.937124    0.287519
C      -0.578934   -3.080857    0.461586
N      -1.454063   -3.618075    1.529406
C      -1.664797   -5.046499    1.585857
C      -2.580794   -2.762125    1.099817
H       0.954557    1.981073   -0.502336
H      -0.390191    1.399316   -1.499542
H      -0.713193    2.238495    0.025824
H       0.683371   -0.496085   -0.239210
H       0.343603    0.314830    1.287272
H      -2.147397    0.102828    0.816332
H      -2.798854   -1.059844   -1.101342
H      -0.531705   -3.718027   -0.436761
H       0.440084   -2.840649    0.784148
H      -0.725403   -5.550088    1.837714
H      -2.391975   -5.284793    2.369625
H      -2.035969   -5.472882    0.633413
H      -3.124566   -2.269223    1.914613
H      -3.306545   -3.285530    0.451869
