19

C      -0.353444    1.171400   -0.362583
C       0.211435   -0.176182    0.054878
C       1.222550   -0.960126   -0.878520
C       2.105924   -1.278560    0.363548
C       1.319595   -0.209042    1.121815
O       1.537654    0.467805    2.084339
C       0.615512   -2.152983   -1.593892
C       0.303415   -1.981116   -3.066606
O       0.368716   -3.177613   -0.997024
H       0.441888    1.849665   -0.687720
H      -1.073833    1.070672   -1.180536
H      -0.865035    1.641709    0.482427
H      -0.586038   -0.865611    0.361184
H       1.705839   -0.272562   -1.577133
H       1.876389   -2.283985    0.733297
H       3.187193   -1.148589    0.288832
H      -0.302046   -1.081780   -3.228078
H       1.234548   -1.836695   -3.627456
H      -0.220818   -2.858349   -3.446950
