16

N      -0.204433   -1.179451   -0.289245
C      -0.112282   -0.041952   -0.106341
C      -0.020753    1.389982    0.108541
C       0.316878    1.924106    1.524806
O       1.332373    2.793553    0.985030
C       1.283692    2.152556   -0.301422
C       2.500048    1.303854   -0.574091
C       3.764676    1.569377    0.122006
O       2.926903    0.471161    0.499117
H      -0.908628    1.870829   -0.307199
H      -0.478748    2.480903    2.027513
H       0.739452    1.168249    2.192674
H       1.145806    2.876751   -1.113487
H       2.521255    0.834496   -1.558852
H       4.703394    1.295544   -0.355587
H       3.804885    2.382468    0.841754
