21

C       0.092379    1.462113   -0.122248
C       1.262972    0.547359   -0.028173
C       2.300467    0.594194    1.054048
N       1.909873    0.721892    2.468497
C       2.469482   -0.556015    1.982396
C       1.569667   -1.779502    1.876646
C       0.044834   -1.590184    2.052813
C      -0.588592   -0.313649    1.476377
N      -0.099948    0.035981    0.136907
H      -0.062087    2.143176    0.713592
H      -0.246880    1.832837   -1.086648
H       1.709327    0.220582   -0.969276
H       3.209452    1.109004    0.743565
H       2.616551    1.247158    2.975316
H       3.491486   -0.781834    2.282839
H       1.762388   -2.230047    0.894746
H       1.899665   -2.523324    2.611389
H      -0.438162   -2.472967    1.619006
H      -0.197652   -1.601769    3.121375
H      -1.669527   -0.472847    1.378336
H      -0.437312    0.503763    2.187149
