18

O       0.056995    1.227398   -0.532362
C      -0.014517    0.042668    0.245439
C      -1.415701   -0.482423    0.316163
C      -1.781819   -1.926377    0.241382
C      -3.252438   -2.083661    0.589933
C      -3.408062   -0.755415   -0.172866
C      -2.676579    0.302963    0.659590
O      -3.105504    0.442772    1.992055
N      -2.071532   -1.034234   -0.937956
H      -0.328397    1.007329   -1.389064
H       0.655112   -0.739302   -0.145757
H       0.344593    0.309532    1.246176
H      -1.022794   -2.698909    0.181867
H      -3.696785   -2.913697    0.035515
H      -3.555936   -2.113726    1.638878
H      -4.309545   -0.514839   -0.732131
H      -2.653243    1.262517    0.129611
H      -2.721525    1.245113    2.357623
