20

N      -0.705060    1.249372    0.955397
C      -0.381215    0.153360    0.211027
O       0.717349    0.011569   -0.295281
C      -1.516891   -0.852161   -0.000996
C      -2.199283   -0.507827   -1.347715
O      -3.350680   -1.289379   -1.602905
C      -0.975100   -2.286328    0.013635
C      -0.473932   -2.735935    1.388094
O      -0.015432   -4.078079    1.386249
H       0.002871    1.948692    1.110869
H      -1.586718    1.337727    1.428534
H      -2.275947   -0.735487    0.783684
H      -2.542448    0.531658   -1.324482
H      -1.456983   -0.592637   -2.154256
H      -3.065540   -2.169301   -1.865658
H      -1.757662   -2.983876   -0.304799
H      -0.150264   -2.344958   -0.706770
H       0.306974   -2.047979    1.745418
H      -1.294428   -2.705668    2.114547
H       0.772212   -4.115329    0.834108
