14

O       0.016971    0.011175    0.190448
C       0.014080    1.187340   -0.011613
O      -1.125103    1.896043   -0.262521
C      -0.844992    3.235288   -0.694595
C       0.647580    3.454524   -0.493386
C       1.160650    3.295674    0.920872
C       0.269820    3.337915    2.049100
N      -0.447492    3.405147    2.953545
C       1.190523    2.124187   -0.061454
H      -1.112283    3.323741   -1.752362
H      -1.466965    3.917425   -0.108373
H       1.178119    4.119125   -1.162885
H       2.134120    3.732469    1.118244
H       2.150758    1.715590   -0.343367
