17

N       0.013153   -1.117217   -0.102305
C      -0.009362    0.039117   -0.053605
C      -0.005608    1.472153   -0.003441
C       0.508785    2.182660    1.246399
C       1.330786    2.203116    0.008502
C       2.748017    1.653469   -0.174382
N       3.167814    2.900357   -0.917027
C       2.306329    2.965254   -2.109286
C       1.731161    3.397513   -0.817654
H      -0.821588    1.945984   -0.539657
H      -0.020578    3.083874    1.537643
H       0.837966    1.560534    2.071660
H       3.308475    1.564983    0.758603
H       2.856526    0.732453   -0.755695
H       2.609772    3.740740   -2.805758
H       1.966527    2.040374   -2.571255
H       1.496171    4.431416   -0.584560
