14

O       0.087160    1.350132   -0.319097
C      -0.018648    0.059089    0.277746
C      -1.384430   -0.525539    0.123026
N      -1.689438   -1.757682   -0.201311
C      -3.070621   -1.827400   -0.194731
C      -3.588680   -0.600878    0.131438
O      -4.834540   -0.089168    0.267129
N      -2.518003    0.225710    0.339790
H      -0.063852    1.241749   -1.264494
H       0.705095   -0.660489   -0.124747
H       0.226898    0.219946    1.334450
H      -3.600150   -2.738084   -0.428580
H      -5.471848   -0.783123    0.071766
H      -2.554374    1.210912    0.543936
