15

C       0.274426    1.388128    0.118615
O       0.301340   -0.021711    0.117636
C       0.312653   -0.550013   -1.191985
C       0.350013   -2.006228   -1.141652
C       0.384832   -3.206920   -1.123920
C       0.419949   -4.666147   -1.085172
C       1.642251   -5.232212   -1.672276
N       2.596208   -5.690345   -2.133646
H       1.160057    1.814395   -0.378464
H      -0.624132    1.780403   -0.383564
H       0.265353    1.708353    1.162433
H      -0.580192   -0.220381   -1.751822
H       1.188481   -0.181267   -1.754070
H       0.342460   -5.017978   -0.048346
H      -0.442631   -5.088746   -1.616299
