15

O      -0.477823    0.074020   -0.416409
C      -0.261704    1.211056   -0.127840
C      -1.171085    2.423573    0.251443
C       0.086431    3.284616    0.076661
O       1.024319    2.806971    1.036044
C       0.965832    2.123856   -0.234334
C       2.226888    1.974819   -1.039245
C       3.139376    0.979619   -0.483646
C       3.887493    0.161665   -0.022726
H      -1.950383    2.567434   -0.502914
H      -1.606589    2.433980    1.251981
H       0.180149    4.306455   -0.270008
H       1.956369    1.697463   -2.066000
H       2.722754    2.951593   -1.090547
H       4.545451   -0.564878    0.385635
