18

C       0.142450    1.315867   -0.219710
O       0.037434   -0.085341   -0.094104
C      -1.283303   -0.567678    0.071330
C      -2.043429   -0.630572   -1.263031
C      -1.150065   -1.917567    0.713089
C      -0.056001   -2.634552    1.137252
N      -0.477856   -3.820145    1.662678
N      -1.773635   -3.883493    1.592827
N      -2.190123   -2.733988    1.016062
H       1.208434    1.550218   -0.259029
H      -0.331232    1.695434   -1.136053
H      -0.303915    1.833623    0.643069
H      -1.831265    0.102247    0.758048
H      -1.516301   -1.285279   -1.961641
H      -3.058132   -1.016712   -1.120620
H      -2.131902    0.364285   -1.707445
H       0.983894   -2.362024    1.089732
H      -3.176884   -2.589699    0.874142
