21

C       0.280948    1.581078   -0.081180
C       0.050225    0.083327    0.060225
O       0.581762   -0.570913   -1.093628
C       1.124525   -1.864925   -0.766839
C       0.078635   -2.958052   -1.022435
C       2.375571   -2.053261   -1.621565
C       1.424285   -1.766647    0.724214
O       2.181084   -0.602955    1.073697
C       0.756139   -0.572031    1.232618
H       1.353514    1.790014   -0.087580
H      -0.153414    1.942660   -1.016810
H      -0.184427    2.123769    0.747950
H      -1.030021   -0.123225    0.156137
H      -0.224738   -2.940131   -2.072739
H       0.480153   -3.951680   -0.796784
H      -0.813367   -2.803655   -0.406997
H       3.109513   -1.283335   -1.374746
H       2.820692   -3.038493   -1.449807
H       2.122057   -1.969810   -2.682128
H       1.612461   -2.659971    1.314413
H       0.385128   -0.462376    2.248246
