23

C      -1.501467   -0.318153   -0.107416
C      -0.011479    0.032157    0.052583
C       0.179665    1.550497    0.118692
O       0.475712   -0.464994    1.299124
C       0.805819   -0.543627   -1.120978
C       2.357871   -0.536067   -1.024470
C       2.375202   -1.956596   -1.650798
C       0.856393   -2.085252   -1.361055
O       0.557545   -2.798415   -0.160193
H      -1.908548    0.076971   -1.044994
H      -1.645376   -1.402193   -0.099870
H      -2.072535    0.108266    0.722508
H      -0.344074    1.948766    0.992496
H       1.239434    1.802016    0.217687
H      -0.214665    2.039320   -0.777442
H       0.481550   -1.428433    1.219238
H       0.473227   -0.064923   -2.048366
H       2.890825    0.249683   -1.563526
H       2.677728   -0.536267    0.019344
H       2.585975   -1.947406   -2.723829
H       3.013468   -2.707830   -1.175766
H       0.233628   -2.470655   -2.178204
H       0.901868   -3.693130   -0.243122
