25

C      -0.366913    1.468897    0.894491
C      -0.076217    0.027291    0.491863
C       1.221183   -0.378424   -0.281294
C       1.988253   -0.169389    1.056077
C       0.697503   -0.964222    1.436886
C       0.279164   -1.429896    2.808237
C       0.961609   -1.869290    0.159337
C      -0.208091   -2.647829   -0.463014
C       2.148178   -2.844665    0.187483
H       0.482738    2.002694    1.325512
H      -0.703652    2.040843    0.022228
H      -1.179718    1.497958    1.629600
H      -0.995382   -0.382746    0.073756
H       1.526861   -0.035407   -1.272873
H       2.950024   -0.662223    1.182452
H       2.056416    0.853030    1.425767
H       0.157464   -0.583763    3.494082
H      -0.675447   -1.967206    2.770555
H       1.025182   -2.104337    3.243608
H      -1.141199   -2.093776   -0.560878
H       0.068331   -2.996055   -1.465007
H      -0.422134   -3.542240    0.133904
H       1.891706   -3.731501    0.779056
H       2.367760   -3.195023   -0.827692
H       3.072893   -2.438562    0.595878
