17

O       0.034307    1.436495   -0.043880
C      -0.004147    0.053689   -0.059676
C       0.805428   -0.836390   -1.014476
C      -0.450480   -1.755610   -1.165520
C      -1.228256   -0.824548   -0.226942
C      -0.485450   -0.781075    1.118029
O       0.234370   -1.869774    1.584693
C      -1.212746   -0.060612    2.182545
O      -1.170588   -0.441435    3.334473
H       0.830617    1.716330    0.423073
H       1.040233   -0.303318   -1.937918
H       1.709466   -1.290269   -0.603948
H      -0.851549   -1.757022   -2.180335
H      -0.339651   -2.781732   -0.812452
H      -2.277264   -0.561512   -0.299849
H       0.016583   -1.919465    2.530217
H      -1.794124    0.827581    1.876485
