14

N       0.062571   -3.635253    0.329177
C       0.045720   -2.482452    0.186765
C       0.023106   -1.127779    0.018775
C      -0.002566    0.070791   -0.129358
C      -0.015387    1.515206   -0.313710
C       1.373600    2.138016   -0.247485
C       1.526995    3.522509    0.260743
N       2.026025    2.376844    1.042162
H      -0.475849    1.745264   -1.284086
H      -0.661653    1.970459    0.448980
H       2.052569    1.782687   -1.018927
H       2.296161    4.171794   -0.146423
H       0.632701    4.039659    0.600712
H       1.390391    2.166914    1.808508
