23

C       0.639814    0.382083    1.320219
O      -0.032634    0.321091    0.079184
C      -1.080367   -0.632551   -0.012986
C      -1.450803   -0.887527   -1.498909
C      -1.346764   -2.416194   -1.251502
C      -0.655960   -2.131503    0.109215
C      -2.270459   -0.244955    0.893089
C      -2.764023    1.178923    0.644903
O      -3.330722   -1.194037    0.786246
H       1.526183    1.003576    1.168482
H       0.030479    0.839275    2.112940
H       0.963559   -0.610898    1.662712
H      -2.407177   -0.495404   -1.858495
H      -0.659137   -0.503409   -2.145364
H      -2.321791   -2.888811   -1.122802
H      -0.771918   -2.988039   -1.982827
H       0.430910   -2.232269    0.052554
H      -1.029748   -2.681104    0.975088
H      -1.941893   -0.334669    1.935698
H      -1.960587    1.905048    0.786957
H      -3.128248    1.292652   -0.383573
H      -3.586392    1.414229    1.325920
H      -3.791926   -1.024931   -0.042259
