20

C       0.002408    1.552730    0.029453
C      -0.007073    0.020764    0.010106
O      -1.359416   -0.450541   -0.053308
C       0.663816   -0.528057   -1.257091
C       0.599428   -2.060208   -1.313598
C       0.994908   -2.687821   -0.004717
C       1.039117   -2.012492    1.141905
C       0.699737   -0.549369    1.258351
H       1.021154    1.949934   -0.026493
H      -0.571279    1.941926   -0.816589
H      -0.452057    1.932855    0.952814
H      -1.803376   -0.185887    0.759047
H       0.179900   -0.092933   -2.137882
H       1.709762   -0.199693   -1.262990
H      -0.419895   -2.374912   -1.572605
H       1.245435   -2.430936   -2.119070
H       1.238719   -3.747616   -0.015522
H       1.335833   -2.517189    2.058537
H       1.612280    0.030035    1.461479
H       0.055713   -0.380229    2.134533
