18

C       0.154052    1.576917    0.028956
C       0.047401    0.070984    0.100504
O       0.866305   -0.605467   -0.887785
C       1.379641   -1.517490    0.099356
C       0.768030   -0.693393    1.258703
O       1.686429    0.052808    2.029975
C      -0.162000   -1.469359    2.189812
N       0.100402   -1.336243    3.511411
O      -1.061898   -2.151762    1.733555
H       1.183496    1.922998    0.162148
H      -0.192277    1.920729   -0.950371
H      -0.470461    2.042303    0.797970
H      -0.994873   -0.257557    0.018567
H       0.955430   -2.522164    0.000967
H       2.476036   -1.568688    0.097740
H       2.340653    0.446067    1.444205
H       0.862791   -0.760331    3.823683
H      -0.478207   -1.828264    4.171085
