15

O      -0.604457    0.800000    0.827815
C       0.101242    0.946701   -0.130290
C       1.392281    1.767028   -0.107135
O       2.427812    0.893306   -0.467281
C       3.699144    1.528343   -0.453997
C       3.699333    2.909530   -1.106988
O       4.710977    3.418942   -1.518302
C       2.362943    3.649868   -1.112933
O       1.234866    2.787378   -1.055575
H      -0.116750    0.500987   -1.122503
H       1.556141    2.183844    0.902555
H       4.059530    1.656340    0.581478
H       4.404582    0.879787   -0.977250
H       2.368501    4.341232   -0.252437
H       2.283525    4.247456   -2.023232
