15

O      -0.135311    0.048428   -0.001440
C      -0.011136    1.245855    0.009854
C       1.332393    1.959940   -0.001793
C       1.487855    2.900488   -1.206589
O       0.513262    3.940492   -1.295820
C       1.785731    4.266662   -0.736886
C       1.809173    4.246309    0.780683
O       0.554422    3.904812    1.369707
C       1.525296    2.867940    1.222566
H      -0.882859    1.929496    0.030172
H       2.120249    1.200427   -0.023944
H       1.826734    2.495622   -2.157026
H       2.387902    4.980141   -1.290869
H       2.428516    4.944890    1.334724
H       1.893071    2.437690    2.150845
