17

O      -0.118446    1.442530    0.011096
C      -0.011016    0.040769   -0.069909
C      -1.313487   -0.735914   -0.107409
C      -1.745023   -0.820835   -1.596754
C      -0.714339   -0.035942   -2.412876
C       0.335686   -0.612761   -1.431776
O       1.682017   -0.725287   -1.733460
C      -0.726696   -1.766645   -1.048077
O      -0.701324   -3.136251   -1.054313
H       0.770627    1.809789   -0.040286
H       0.658366   -0.359705    0.705927
H      -2.029114   -0.879138    0.690809
H      -2.774271   -1.037074   -1.848447
H      -0.602754   -0.459321   -3.416893
H      -0.795353    1.053628   -2.457493
H       1.768778   -1.088220   -2.621319
H      -0.200774   -3.437260   -0.287505
