11

O      -0.025962    1.419045    0.008154
C       0.003561    0.003000    0.002338
C      -1.412376   -0.466188    0.012283
C      -2.574371    0.235081    0.024201
O      -3.592924   -0.624451    0.029384
N      -3.017776   -1.927651    0.020429
N      -1.765652   -1.796553    0.010549
H       0.879916    1.740417    0.001675
H       0.515495   -0.394034   -0.888274
H       0.530214   -0.401030    0.881139
H      -2.800410    1.287060    0.029687
