20

O       0.033621    1.394277    0.303644
C       0.004164   -0.002781    0.247344
C      -0.811745   -0.775436    1.259815
C      -1.294801   -0.610868   -0.159050
C      -2.537559    0.175702   -0.607521
C      -2.843548   -0.983110   -1.572815
C      -4.169180   -1.555373   -1.886760
N      -3.363352   -0.886517   -2.931947
C      -1.539705   -1.710430   -1.206577
H       0.577515    1.652312    1.055051
H       0.917584   -0.468207   -0.126577
H      -0.452814   -1.748853    1.581039
H      -1.319865   -0.197218    2.025988
H      -3.291160    0.367945    0.162150
H      -2.291515    1.120759   -1.102453
H      -4.285844   -2.628159   -2.020317
H      -5.050481   -1.049252   -1.498782
H      -3.723372    0.050462   -3.100772
H      -0.811141   -1.729421   -2.023056
H      -1.659735   -2.724289   -0.812835
