20

C       0.891974   -0.135335    0.136631
C       0.112850   -0.661864   -1.075751
C      -1.339710   -0.984305   -0.778338
C      -2.232005    0.206481   -0.408431
C      -2.200817    1.276256   -1.406058
N      -2.159601    2.122330   -2.191891
O      -1.973691   -1.907605   -1.669130
C      -1.788068   -2.309394   -0.303875
C      -0.896703   -3.494187   -0.033981
H       1.937173    0.043190   -0.130410
H       0.486138    0.813006    0.503019
H       0.875083   -0.850916    0.965378
H       0.140048    0.078096   -1.884402
H       0.590437   -1.561005   -1.471647
H      -3.263509   -0.141277   -0.300501
H      -1.925215    0.625843    0.556503
H      -2.720595   -2.325414    0.266694
H       0.041936   -3.441558   -0.587506
H      -0.671132   -3.562810    1.035609
H      -1.409256   -4.416641   -0.325898
