21

C       0.214987    1.428417    0.299694
C      -0.141680   -0.026287   -0.031717
C      -1.652453   -0.212747   -0.226172
C       0.636335   -0.521588   -1.259219
C       2.062204   -1.041989   -1.048357
C       0.954792   -2.003382   -1.370916
O       0.435693   -2.833646   -0.375523
C       0.375226    0.167692   -2.496407
C       0.157747    0.745608   -3.529653
H       1.289511    1.546995    0.473514
H      -0.066862    2.096901   -0.520359
H      -0.312495    1.757803    1.200629
H       0.168216   -0.662012    0.803606
H      -2.010683    0.362635   -1.086207
H      -1.894810   -1.265947   -0.392913
H      -2.199421    0.127792    0.659092
H       2.806967   -0.827061   -1.805626
H       2.421829   -1.030396   -0.024327
H       0.930332   -2.423425   -2.375307
H       1.105426   -3.489096   -0.154063
H      -0.036976    1.254276   -4.440959
