18

C      -0.023254    1.509304    0.278571
C      -0.067815    0.026834   -0.082689
C       0.796075   -0.329328   -1.287268
O       1.367480    0.503459   -1.944195
C       0.884689   -1.836740   -1.595155
C       1.588136   -2.170066   -2.821339
C       2.170265   -2.439026   -3.838939
C       2.876758   -2.754993   -5.071419
H       0.993065    1.818008    0.536976
H      -0.343476    2.123814   -0.566086
H      -0.675747    1.719419    1.130554
H       0.242646   -0.601536    0.763205
H      -1.095204   -0.291803   -0.309999
H       1.366691   -2.310628   -0.726986
H      -0.137526   -2.240667   -1.602942
H       3.734179   -3.410762   -4.883661
H       2.222179   -3.262531   -5.788636
H       3.253816   -1.845747   -5.552268
