20

C      -0.329872    1.060328   -0.003951
O       0.552882   -0.062116    0.030396
C       0.570534   -0.800697   -1.110915
O      -0.079645   -0.550402   -2.099735
N       1.414303   -1.863724   -0.956562
C       1.787256   -2.683519   -2.068472
C       2.103575   -4.133077   -1.797932
C       0.851879   -3.764863   -2.557541
C      -0.515324   -3.964294   -1.946375
H      -0.050093    1.753554   -0.801607
H      -1.362484    0.740138   -0.166631
H      -0.232465    1.543353    0.969024
H       2.000078   -1.856955   -0.136596
H       2.379834   -2.180222   -2.829625
H       2.940442   -4.580914   -2.321736
H       1.974152   -4.480726   -0.777524
H       0.891625   -3.922346   -3.631792
H      -0.492291   -3.795638   -0.866320
H      -1.237668   -3.265375   -2.378097
H      -0.873322   -4.984717   -2.119624
