17

C      -0.057139    1.397715   -0.030523
N      -0.045161   -0.047330   -0.215435
C      -1.124326   -0.678610   -0.155805
N      -2.525715   -0.284257    0.190618
C      -3.263860   -0.749076   -1.064250
C      -2.927118   -2.178746   -0.668558
C      -2.688919   -1.712409    0.734615
C      -1.484000   -2.114955   -0.131731
O      -0.697760   -3.231801   -0.130643
H       0.671490    1.663471    0.742966
H       0.275043    1.879322   -0.957102
H      -1.040024    1.794136    0.248486
H      -4.327188   -0.513150   -0.973916
H      -2.860454   -0.340902   -1.997157
H      -3.331451   -3.125746   -1.005915
H      -3.007631   -1.983899    1.729352
H       0.073907   -3.044863    0.417634
