14

C      -0.096771    1.498423    0.017163
C      -0.005614    0.001970    0.013477
N       0.097065   -0.596201   -1.180513
C       0.174134   -1.918637   -1.120184
O       0.277725   -2.558351   -2.285089
N       0.158060   -2.665996   -0.012381
C       0.052308   -1.949299    1.107176
O       0.028684   -2.614942    2.261468
N      -0.033034   -0.625082    1.193860
H       0.786076    1.924029   -0.469777
H      -0.964581    1.817664   -0.568190
H      -0.176879    1.874826    1.036358
H       0.323844   -3.502838   -2.081357
H       0.097967   -3.554800    2.043003
