19

C      -0.058086    1.584781    0.075285
C      -0.016936    0.042399    0.028278
C       0.744857   -0.522331    1.249777
C      -1.383810   -0.487327    0.046580
C      -2.499201   -0.931894    0.095554
C       0.650934   -0.430613   -1.314113
O      -0.067407    0.028077   -2.421479
C       2.102723    0.001445   -1.432706
O       2.484424    0.670076   -2.364059
H       0.956119    1.997303    0.116052
H      -0.559283    1.973606   -0.812478
H      -0.601101    1.923972    0.960747
H       0.181879   -0.312646    2.162385
H       0.867193   -1.607294    1.175943
H       1.732521   -0.063288    1.354065
H      -3.487735   -1.318990    0.121925
H       0.659384   -1.535165   -1.290380
H       0.571042    0.519473   -2.963079
H       2.801439   -0.343012   -0.647382
