14

C       0.002174    1.500157    0.038915
C       0.019556   -0.003020   -0.024138
C      -0.110469   -0.700367   -1.222075
C      -0.086014   -2.095907   -1.209400
C       0.067529   -2.739030    0.000884
F       0.099856   -4.066774    0.089591
C       0.190427   -1.953727    1.150669
F       0.338482   -2.568032    2.318415
N       0.168627   -0.649180    1.147819
H       0.933573    1.875160    0.474951
H      -0.122604    1.942362   -0.952055
H      -0.813282    1.846177    0.681995
H      -0.229664   -0.165148   -2.156657
H      -0.183568   -2.680789   -2.116794
