25

C       0.058540    1.452563   -0.364784
C      -0.000287   -0.002976    0.121168
C      -1.403988   -0.540567    0.199622
C      -2.142086   -1.086802   -0.998444
C      -1.933532   -1.984346    0.197138
C      -1.210202   -3.301795    0.115568
C      -2.106057   -4.448853   -0.374240
C      -2.972572   -1.618585    1.269035
C      -2.434286   -0.151048    1.271591
H       1.089662    1.818313   -0.398474
H      -0.368272    1.547415   -1.368601
H      -0.508191    2.113814    0.299474
H       0.595114   -0.634937   -0.550133
H       0.474530   -0.074579    1.109453
H      -3.134867   -0.722224   -1.257887
H      -1.518100   -1.314201   -1.858894
H      -0.346905   -3.202793   -0.554831
H      -0.802414   -3.556916    1.103449
H      -1.555903   -5.394453   -0.410157
H      -2.966422   -4.588721    0.288998
H      -2.492243   -4.242460   -1.377773
H      -4.023601   -1.758947    0.993723
H      -2.795135   -2.125163    2.221996
H      -1.972436    0.117727    2.225894
H      -3.144988    0.636457    0.997915
