20

C       0.072019    1.516651   -0.166331
C       0.070327    0.021524   -0.100975
C       0.029789   -0.832277   -1.124868
C      -0.017028   -2.274144   -0.693956
C       0.326248   -2.195435    0.813107
C       0.056927   -0.729728    1.230733
C       1.116992   -0.202183    2.206184
N       0.649125    0.669349    3.147752
O       2.293087   -0.501524    2.131045
H       0.964428    1.937966    0.311490
H       0.042468    1.867590   -1.201209
H      -0.793603    1.942126    0.359163
H      -0.007568   -0.529586   -2.166683
H      -1.016041   -2.699444   -0.868310
H       0.684716   -2.909726   -1.246153
H      -0.232180   -2.912915    1.419525
H       1.392487   -2.382419    0.961837
H      -0.935038   -0.614998    1.694967
H      -0.329793    0.861725    3.262231
H       1.300608    1.044344    3.817870
