20

C      -0.028569    1.466462   -0.011240
C       0.043561    0.012582   -0.024274
C       0.111175   -1.190322   -0.015008
C       0.147562   -2.653975   -0.048846
O      -1.102061   -3.225394    0.340072
C       0.591127   -3.174336   -1.434659
C       0.740108   -4.677379   -1.462862
C       1.666017   -5.325065   -2.421615
N       1.980219   -5.314225   -0.979847
H       0.931965    1.905666    0.279635
H      -0.290665    1.864594   -0.997558
H      -0.782029    1.818577    0.701764
H       0.860274   -3.018845    0.701559
H      -1.792419   -2.747984   -0.133399
H      -0.152967   -2.851161   -2.174971
H       1.539225   -2.695502   -1.711133
H      -0.154750   -5.217300   -1.164948
H       1.434734   -6.303669   -2.832817
H       2.241556   -4.682996   -3.084623
H       2.681957   -4.599704   -0.795198
