15

C      -0.242448    1.504579    0.102632
C       0.113931    0.038808    0.025822
O       1.263582   -0.213726   -0.864648
C       2.058219   -0.650392    0.159993
O       3.201374   -0.963757    0.133711
C       0.920147   -0.568950    1.199271
O       1.155171    0.270975    2.301872
C       1.022142   -0.247663    3.550760
O       1.199797    0.402484    4.530032
H       0.605839    2.099210    0.448226
H      -0.552234    1.864223   -0.882032
H      -1.072032    1.650666    0.801153
H      -0.727975   -0.575411   -0.303414
H       0.575888   -1.559778    1.516458
H       0.734125   -1.316229    3.537102
