18

C      -0.117285    1.606038   -0.138275
C      -0.005797    0.075406   -0.064658
C       0.845348   -0.530974   -1.168036
C       1.823543   -1.311392   -0.706161
C       1.836085   -1.323339    0.785212
N       2.079404   -0.005185    1.384326
C       0.679432   -0.437172    1.203374
C      -0.078722   -0.805726    2.417986
O       0.433027   -0.984242    3.501027
H       0.868553    2.059794   -0.012132
H      -0.526583    1.920961   -1.103219
H      -0.777652    1.989986    0.645829
H      -1.020599   -0.350487   -0.109852
H       0.663222   -0.305660   -2.213388
H       2.543611   -1.856431   -1.304294
H       2.097039   -2.209132    1.355558
H       2.281669   -0.138943    2.378184
H      -1.175331   -0.917630    2.273054
