19

C       0.046706    1.429286    0.044177
O       0.002252    0.021590    0.021312
C       0.631538   -0.529302   -1.106333
C       0.579449   -2.061608   -0.993148
C       1.085089   -2.709936   -2.306847
C       0.934437   -4.217443   -2.326708
O       0.466972   -4.834367   -3.249369
C       1.337847   -2.532362    0.164673
C       1.993203   -2.924613    1.092745
H       1.081987    1.803720    0.066189
H      -0.459582    1.868598   -0.829923
H      -0.467151    1.755666    0.951061
H       0.119199   -0.216966   -2.032312
H       1.680750   -0.196774   -1.177417
H      -0.476674   -2.328352   -0.853954
H       0.552550   -2.303066   -3.170911
H       2.153790   -2.481493   -2.422766
H       1.299615   -4.732728   -1.412426
H       2.554780   -3.266732    1.926721
