16

C       0.169760    1.372619   -0.416999
N       0.021023   -0.046007   -0.148515
C      -1.068914   -0.628393    0.025979
C      -1.389664   -2.090508    0.313022
C      -2.889134   -1.690573    0.334994
N      -2.479050   -0.299411    0.054624
C      -3.291750    0.790867   -0.093331
O      -2.955427    1.930168   -0.323160
H       0.814844    1.803948    0.357254
H       0.706296    1.489175   -1.365818
H      -0.771321    1.927624   -0.459165
H      -1.103357   -2.775336   -0.486657
H      -0.992173   -2.456869    1.260774
H      -3.501909   -2.130785   -0.456189
H      -3.390925   -1.809848    1.298931
H      -4.353667    0.496086    0.027941
