15

O      -0.552646    0.732286   -0.633897
C       0.233951    0.934889    0.262037
C       1.398181    1.775149    0.145594
C       2.383531    2.472520    0.083941
C       3.535178    3.307395   -0.040383
C       4.793747    3.118782   -0.941592
C       5.027407    4.306515    0.019401
C       3.612793    4.843918   -0.295046
O       4.448738    3.497501    1.120975
H       0.109904    0.475058    1.263007
H       5.372634    2.221393   -0.724867
H       4.684613    3.322330   -2.008860
H       5.943278    4.853685    0.232305
H       3.400079    5.198777   -1.305608
H       3.160039    5.453526    0.486477
