16

O      -0.003256    0.006421    0.000376
C       0.017733    1.203116   -0.002519
N      -0.988764    2.158626   -0.005718
C      -0.103866    3.318738   -0.006439
C       0.375253    3.883807    1.379506
C      -0.116541    3.146905    2.632896
O       0.917941    2.139160    2.496990
C       1.516481    2.837504    1.387651
C       1.095969    2.316477   -0.026125
H      -1.977516    2.065501    0.179691
H      -0.291305    4.045787   -0.797312
H       0.536000    4.959639    1.425799
H       0.004452    3.714641    3.563215
H      -1.121766    2.712501    2.597979
H       2.575850    3.054685    1.542973
H       1.850990    2.289829   -0.809350
