14

O       0.095661    0.102434    0.166425
C       0.049612    1.295383    0.159935
C      -1.045011    2.318623    0.125529
C      -0.461022    3.596770    0.660644
N      -0.171229    3.210288   -0.752318
C       1.052225    2.419259   -0.144799
C       0.963249    3.335900    1.069120
C       1.946197    4.258816    1.622950
O       1.486033    3.098377    2.349371
H      -2.105545    2.195088   -0.053304
H      -1.098724    4.439937    0.901215
H       1.959357    2.255984   -0.719415
H       2.980500    4.216550    1.286638
H       1.623002    5.216638    2.027847
