20

N      -0.077826   -1.185647   -0.343001
C      -0.048382   -0.043732   -0.163057
C      -0.009985    1.402747    0.072084
C      -0.705368    1.797771    1.413700
C       0.283653    1.922216    2.595000
C       1.671324    2.374712    2.108676
C       1.553661    3.258881    0.830039
C       1.451242    1.922036    0.039321
C       2.270017    1.276035    1.188307
H      -0.570045    1.865309   -0.749568
H      -1.179200    2.768900    1.247589
H      -1.512688    1.098654    1.643657
H      -0.125079    2.634467    3.320377
H       0.385959    0.965432    3.120061
H       2.286389    2.742236    2.932918
H       0.739111    3.984722    0.754629
H       2.496875    3.764108    0.608644
H       1.854101    1.877051   -0.974248
H       3.343138    1.411030    1.032013
H       2.069938    0.229722    1.435122
