25

C       0.084168    1.480474    0.272380
C      -0.045617   -0.017479   -0.011335
O      -1.409685   -0.435693    0.025669
C       0.650175   -0.482509   -1.301980
C       0.064346    0.166458   -2.558869
C       2.211152   -0.425703   -1.270037
C       2.264050   -1.885024   -1.805057
C       3.258695   -2.850346   -1.177879
C       0.758655   -2.033534   -1.445399
H       1.132815    1.794289    0.287546
H      -0.431115    2.079346   -0.487599
H      -0.361215    1.716291    1.242761
H       0.421129   -0.564105    0.818111
H      -1.906866    0.129441   -0.574695
H       0.202755    1.252941   -2.564244
H       0.544980   -0.227387   -3.460069
H      -1.007443   -0.045259   -2.651073
H       2.693077    0.351637   -1.870317
H       2.596823   -0.357339   -0.246201
H       2.396213   -1.882278   -2.892377
H       3.149730   -2.870990   -0.087211
H       3.108590   -3.871900   -1.545418
H       4.292232   -2.563739   -1.403833
H       0.612922   -2.540095   -0.485934
H       0.108288   -2.509278   -2.184315
