16

C       0.155586    1.575290    0.057967
C      -0.022054    0.058205    0.058770
C       0.685871   -0.686359   -1.131266
O       1.826123   -1.416044   -0.591680
C       1.707135   -1.348082    0.741716
N       2.396089   -1.833091    1.743604
C       1.701445   -1.292339    2.803076
N       0.660373   -0.525881    2.507789
N       0.677704   -0.596054    1.144983
H       1.214962    1.842728   -0.002985
H      -0.367317    2.016825   -0.796026
H      -0.256345    2.003612    0.975100
H      -1.087261   -0.192839    0.080843
H       0.020501   -1.411693   -1.606313
H       1.063235    0.008023   -1.884372
H       1.982004   -1.482486    3.828447
