17

O       0.034801    1.407806    0.007597
C       0.014202   -0.005222    0.037045
C      -1.394537   -0.539788   -0.048332
C      -1.629300   -2.082473    0.068435
O      -2.973771   -2.146958    0.556110
C      -3.354450   -0.758022    0.698649
O      -2.159681   -0.136600    1.117213
C      -3.545660   -0.206765   -0.712025
C      -2.305251   -0.079210   -1.183157
H      -0.599197    1.704204    0.671167
H       0.596489   -0.350211   -0.824100
H       0.491288   -0.403447    0.946053
H      -1.537088   -2.604080   -0.889154
H      -0.951915   -2.529841    0.804325
H      -4.150696   -0.675467    1.435011
H      -4.491712   -0.097224   -1.222876
H      -1.968754    0.168084   -2.180089
