15

C      -0.061985    1.483931   -0.044187
C      -0.007784   -0.007581    0.030885
N      -0.041823   -0.760583   -1.066485
N       0.017605   -2.038058   -0.611797
C       0.090027   -2.122137    0.740836
N       0.215550   -3.333611    1.429395
C       0.076609   -0.816094    1.190697
O       0.061361   -0.456440    2.518867
H       0.866735    1.946377    0.313573
H      -0.214922    1.795312   -1.079555
H      -0.878764    1.885379    0.566057
H       0.053678   -2.796007   -1.270638
H      -0.593463   -3.936637    1.316654
H       0.331571   -3.144415    2.418896
H       0.751968    0.196123    2.673000
