17

C       0.186269    0.979083    1.202570
C       1.133858    1.035951    0.019938
C      -0.122448    0.237021   -0.066871
O       0.045078   -1.159378   -0.091113
C      -1.013939   -1.860829    0.370703
C      -2.212415   -1.553017    0.960819
N      -2.913907   -2.718222    1.216138
C      -2.156495   -3.695143    0.791652
N      -0.978235   -3.228547    0.262514
H       0.492196    0.383032    2.054282
H      -0.406827    1.853597    1.445363
H       1.201814    1.949278   -0.559607
H       2.058630    0.476430    0.100550
H      -0.940154    0.579753   -0.696755
H      -2.602836   -0.582871    1.218487
H      -2.386267   -4.748920    0.833797
H      -0.225456   -3.758084   -0.143999
