19

C      -0.019222    1.476413    0.031381
C      -0.017487   -0.033850    0.095464
C      -1.021540   -0.734700   -0.799817
C      -1.216550   -2.192441   -0.492865
C      -0.740460   -2.802989    0.589081
C       0.084826   -2.135668    1.655428
O       1.248767   -2.905427    1.957983
C       0.488537   -0.721014    1.296004
O       1.293777   -0.627180    0.109191
H       0.777030    1.887824    0.656231
H       0.142820    1.817738   -0.997142
H      -0.978037    1.881319    0.372126
H      -1.985239   -0.209720   -0.728244
H      -0.702974   -0.612282   -1.844681
H      -1.797255   -2.758969   -1.217037
H      -0.916348   -3.863421    0.748692
H      -0.480752   -2.108151    2.596631
H       1.809596   -2.849362    1.173922
H       0.858502   -0.121567    2.128394
