18

C      -0.328001    1.321995    0.182637
C      -0.076922   -0.161057    0.053155
O      -0.031374   -0.915516    0.996747
C       0.110543   -0.684044   -1.385793
C       0.670188   -2.110812   -1.439696
C      -0.603156   -2.965457   -1.466613
O      -1.609413   -2.140827   -2.090544
C      -1.263832   -0.829828   -2.033976
N      -1.975041    0.131096   -2.444292
H       0.586924    1.866953   -0.080723
H      -1.100184    1.629708   -0.529596
H      -0.613064    1.568423    1.205924
H       0.689814    0.046203   -1.954504
H       1.251346   -2.254847   -2.354292
H       1.294036   -2.343441   -0.576214
H      -0.513846   -3.878643   -2.058460
H      -0.937340   -3.218371   -0.455974
H      -2.861875   -0.209114   -2.819109
