18

C      -0.279263    1.329802    0.107067
O       0.351867    0.083389   -0.134045
C       0.759311   -0.557355    1.030003
C      -0.262659   -1.238025    2.014451
O      -1.145655   -0.826475    2.709444
C       0.448513   -2.558276    1.850751
N       0.351853   -2.821784    0.366708
C       1.411066   -1.937022    0.862541
C       2.867089   -2.203703    0.640265
H       0.399345    2.029160    0.620457
H      -0.545450    1.743945   -0.867584
H      -1.185376    1.214700    0.713967
H       1.404542    0.093972    1.650157
H       0.588670   -3.371332    2.551713
H       0.769194   -3.743723    0.226036
H       3.154988   -1.942920   -0.383846
H       3.484987   -1.612748    1.323777
H       3.101865   -3.261939    0.797074
