18

C       0.148955    1.589280    0.206715
C       0.167637    0.104780    0.089971
C       0.787657   -0.863495   -0.845936
C       1.245957   -1.775774    0.287567
C       0.137118   -1.093091    1.132136
C      -1.132113   -1.533256    0.397476
C      -2.435957   -0.964725    0.908455
O      -2.545128   -0.310942    1.914982
N      -0.721657   -0.710080   -0.798257
H       1.066937    1.958856    0.676621
H       0.065543    2.041340   -0.786519
H      -0.700542    1.924268    0.810244
H       1.238562   -0.692253   -1.815110
H       1.191174   -2.862246    0.156964
H       2.246822   -1.495003    0.625435
H       0.186622   -1.033300    2.215985
H      -1.263756   -2.603825    0.179729
H      -3.312857   -1.179811    0.258704
