17

C      -0.281274    1.547818    0.063195
C      -0.007255    0.048095    0.026209
C       0.719561   -0.508712   -1.266835
N       1.808819   -0.925607   -0.373410
C       2.994018   -1.551680   -0.109066
C       3.148874   -1.469375    1.267680
C       2.023814   -0.790942    1.839337
C       1.219444   -0.475706    0.766811
H       0.620276    2.118184   -0.181760
H      -1.068759    1.822479   -0.647114
H      -0.609775    1.854336    1.061278
H      -0.925857   -0.507236    0.245417
H       0.216285   -1.337656   -1.773518
H       1.011551    0.250039   -1.999897
H       3.622965   -1.980242   -0.871857
H       3.996088   -1.854304    1.816438
H       1.862198   -0.583524    2.885230
