25

C      -0.535064    1.469682   -2.451570
C      -0.402875   -0.054099   -2.378187
C       0.504035   -0.521816   -1.233645
C       0.617621   -2.049330   -1.112856
C       1.271042   -2.734949   -2.342874
C       2.081026   -3.928458   -1.780929
C       2.265719   -3.551413   -0.332844
C       1.480771   -2.540140    0.044229
C       1.363100   -1.968979    1.423690
H      -0.955948    1.875784   -1.524808
H       0.440495    1.944580   -2.604999
H      -1.187179    1.776340   -3.275524
H      -1.397648   -0.503261   -2.254423
H      -0.016872   -0.432351   -3.332885
H       1.509635   -0.097339   -1.366204
H       0.119864   -0.109147   -0.291283
H      -0.403905   -2.440607   -0.966498
H       0.543369   -3.033577   -3.101800
H       1.958200   -2.024196   -2.817528
H       1.527067   -4.874687   -1.868951
H       3.027091   -4.081005   -2.313455
H       2.933339   -4.090641    0.332212
H       2.009449   -2.496717    2.130463
H       1.632689   -0.906153    1.449245
H       0.331321   -2.035115    1.794180
