18

C      -0.132689    1.502757    0.184793
C       0.079374   -0.006285    0.060618
N       0.767708   -0.570658    1.208995
N       2.061471   -0.850652    1.195878
C       2.321886   -1.262484    2.437195
C       1.123745   -1.201208    3.170875
O       0.966056   -1.539757    4.457071
C      -0.352646   -1.394807    4.978262
N       0.147484   -0.756773    2.382375
H       0.826245    2.022956    0.260001
H      -0.662871    1.878658   -0.695421
H      -0.726431    1.735009    1.072528
H      -0.878100   -0.525795   -0.035542
H       0.696984   -0.250202   -0.805628
H       3.305157   -1.579249    2.741277
H      -1.061859   -2.024856    4.431125
H      -0.298833   -1.707988    6.021566
H      -0.687813   -0.354266    4.913372
