20

C      -0.019214    1.577902    0.105487
C       0.106008    0.070978    0.126672
C      -0.600542   -0.641250   -1.007494
O       1.429181   -0.438645    0.402795
C       0.386575   -0.683348    1.367043
C       0.554959   -0.086523    2.748179
C       1.744291   -0.671902    3.525997
N       2.931698   -0.595229    2.859787
O       1.632925   -1.116701    4.650932
H       0.578664    2.051349    0.885167
H       0.323468    1.965522   -0.859887
H      -1.064324    1.879338    0.232934
H      -0.220405   -0.293377   -1.973971
H      -0.446091   -1.721092   -0.947578
H      -1.676696   -0.439846   -0.978519
H       0.063124   -1.726260    1.380738
H       0.689167    0.997396    2.689868
H      -0.337599   -0.285119    3.345729
H       2.947981   -0.376669    1.875147
H       3.732301   -1.036473    3.282390
