19

C       0.094655    1.452616   -0.049768
O       1.195288    0.543042   -0.090828
C      -0.126605    0.003913    0.062756
C      -0.435831   -0.655154    1.349079
C       0.016771   -0.237838    2.747957
C      -0.431944   -1.654180    3.199467
C      -1.975599   -1.633319    3.016928
C      -1.689094   -1.540385    1.519877
C      -0.310116   -2.127154    1.692425
H       0.035823    2.073697    0.842994
H      -0.129081    1.964604   -0.985183
H      -0.490744   -0.518839   -0.824051
H       1.102558   -0.119044    2.776295
H      -0.466009    0.619957    3.232466
H       0.024070   -2.134443    4.062252
H      -2.427100   -2.596797    3.269583
H      -2.531822   -0.825013    3.506345
H      -2.374563   -1.688597    0.694349
H       0.207184   -2.935452    1.196340
