11

O       0.073709    1.348163    0.108859
C       0.068231    0.010893    0.070620
N       0.104396   -0.659066   -1.060664
O       0.085065   -1.998420   -0.703131
C       0.037665   -2.089532    0.638196
C       0.008976   -3.420105    1.264459
O       0.024746   -4.463460    0.661122
C       0.024333   -0.846346    1.200587
H       0.107214    1.673532   -0.801254
H      -0.029609   -3.373655    2.373241
H      -0.010768   -0.577680    2.242757
