19

C      -0.028549    1.546310    0.015669
C       0.042787    0.046097   -0.009542
C      -0.849141   -0.845468    0.802642
O      -1.621706   -1.880085    0.231474
C       0.621555   -0.970636    1.040729
C       1.260690   -1.780918   -0.077846
O       0.799031   -3.123803   -0.204426
C       0.671265   -0.780402   -1.136527
O      -0.173392   -1.340770   -2.116116
H       0.950198    1.998465   -0.180557
H      -0.723807    1.915000   -0.747537
H      -0.377571    1.912863    0.986429
H      -1.393243   -0.324498    1.588142
H      -1.069858   -2.677097    0.276170
H       1.071829   -0.777866    2.007280
H       2.355689   -1.762874   -0.047309
H       0.631911   -3.242581   -1.151732
H       1.463132   -0.242346   -1.664226
H      -0.999083   -1.561991   -1.657201
