18

C       0.309389    0.650361   -0.615161
C      -0.394214    0.562390    0.752309
C      -1.601984   -0.254032    0.708335
C      -2.587575   -0.942894    0.631632
C      -3.744841   -1.781349    0.536510
C      -4.656124   -1.708880   -0.664931
C      -3.786023   -2.934897   -0.483333
C      -2.668073   -3.157532   -1.354386
N      -1.768066   -3.349332   -2.055312
H       1.220838    1.249804   -0.534572
H       0.576557   -0.345506   -0.977407
H      -0.344390    1.113975   -1.358681
H       0.297345    0.145101    1.495346
H      -0.645306    1.571000    1.105008
H      -4.225692   -2.026653    1.479262
H      -5.721312   -1.834449   -0.510448
H      -4.378077   -1.019977   -1.452450
H      -4.275028   -3.843546   -0.149407
