14

O      -0.480211    1.133024   -0.997161
C       0.066282    1.040617    0.066896
C       1.209459    1.966654    0.505254
O       2.006649    1.580213    1.325595
C       1.294086    3.366176   -0.116932
O       0.270388    3.989984   -0.300889
C       2.648540    3.905454   -0.390059
C       2.849501    4.472158   -1.771082
N       2.760483    5.352170   -0.620020
H      -0.129524    0.226780    0.796380
H       3.475586    3.427017    0.121398
H       3.833947    4.380451   -2.219969
H       2.008128    4.413260   -2.456177
H       1.817382    5.739998   -0.569122
