19

C       0.189502    1.647918    0.005456
C       0.049289    0.125957   -0.105657
C       0.840180   -0.489639   -1.232195
C       1.558766   -1.525166   -0.813442
C       1.341560   -1.767766    0.653938
N       0.606711   -0.566510    1.075847
C      -0.268914   -0.720937    2.210212
C      -1.417665   -1.636423    1.982756
N      -2.292873   -2.356756    1.754829
H       1.241240    1.925757    0.115597
H      -0.215556    2.136960   -0.886649
H      -0.361294    2.034834    0.869351
H      -1.022678   -0.114889   -0.240215
H       0.786447   -0.109315   -2.244803
H       2.200213   -2.153065   -1.418696
H       0.765001   -2.697795    0.812864
H       2.278141   -1.873093    1.220315
H       0.298236   -1.099326    3.068293
H      -0.669153    0.254409    2.507539
