18

C      -0.049905    1.434306    0.116415
N       0.015446    0.003948   -0.109741
C      -1.244428   -0.722705   -0.063670
C      -1.109111   -2.117733   -0.667405
C       0.080415   -2.830852   -0.033421
N       1.250147   -1.987355   -0.187891
C       1.253029   -0.611366   -0.066399
O       2.302337    0.008281    0.027167
H       0.961909    1.832904    0.068247
H      -0.672223    1.913794   -0.649152
H      -0.480790    1.668113    1.100995
H      -1.612944   -0.795319    0.974077
H      -1.993340   -0.143963   -0.618247
H      -2.030153   -2.684006   -0.502207
H      -0.947601   -2.037791   -1.747482
H      -0.136079   -3.049675    1.025410
H       0.267334   -3.789573   -0.528360
H       2.162886   -2.380580   -0.024205
