17

C       0.303688    1.561504    0.003698
C       0.113782    0.064703    0.084899
O       0.952384   -0.674861   -0.848445
C       1.368031   -1.603106    0.175869
C       2.854202   -1.551743    0.463116
C       3.002247   -0.446156    1.508436
O       4.003035    0.042165    1.936746
O       1.761899   -0.063553    1.954066
C       0.709230   -0.730656    1.267943
H       1.333344    1.842793    0.233342
H       0.061228    1.907249   -1.005599
H      -0.361932    2.068261    0.709811
H      -0.941105   -0.203687   -0.069794
H       0.962056   -2.605567    0.012881
H       3.238412   -2.485507    0.886302
H       3.443960   -1.311979   -0.423612
H       0.026441   -1.161481    2.000383
