19

O       0.152448    1.394748    0.160849
C       0.078508   -0.000412   -0.101617
C      -1.330724   -0.512515   -0.101876
C      -2.040552   -0.952134    1.153082
C      -1.862866   -1.943973    0.036928
C      -2.915585   -1.697727   -1.060450
C      -2.371760   -0.223767   -1.190052
C      -2.664882   -2.490852   -2.313724
O      -3.490932   -3.140606   -2.900728
H      -0.277690    1.550519    1.008466
H       0.534895   -0.132349   -1.089294
H       0.681021   -0.581268    0.616132
H      -1.400729   -1.123231    2.014186
H      -3.029202   -0.571278    1.398785
H      -1.316165   -2.868970    0.180124
H      -3.960638   -1.817826   -0.763524
H      -3.095356    0.569285   -0.983970
H      -1.919627   -0.035239   -2.168210
H      -1.612804   -2.428080   -2.683871
