18

C       0.277103    1.584905    0.049460
C      -0.259984    0.178313   -0.236526
C       0.515422   -0.509833   -1.334330
N       1.794493   -1.116579   -0.959594
C       0.684651   -2.000643   -1.404829
C       0.114204   -2.893961   -0.441024
C      -0.393671   -3.668316    0.339847
C      -0.961352   -4.533454    1.221852
C      -1.467117   -5.302617    2.003971
H       1.327761    1.539868    0.352004
H       0.208284    2.227405   -0.835772
H      -0.287954    2.065533    0.853367
H      -0.207135   -0.435225    0.667905
H      -1.316873    0.227189   -0.527261
H       0.467989   -0.016836   -2.306121
H       2.473095   -1.033320   -1.712310
H       0.759878   -2.419456   -2.406860
H      -1.909749   -5.977993    2.693086
