18

C       0.947982    0.426827    0.073426
C      -0.054871   -0.607560   -0.435052
N      -1.418998   -0.369798    0.059697
C      -2.438636   -0.122850   -0.837725
N      -3.666920   -0.256443   -0.528776
C      -1.712940   -0.700749    1.387451
N      -0.902093   -1.402992    2.073776
C      -2.940633   -0.063278    2.024813
O      -3.424080   -0.530388    3.023957
H       1.941516    0.209674   -0.330305
H       0.664592    1.437459   -0.236371
H       1.011127    0.396982    1.163192
H      -0.099684   -0.594890   -1.527399
H       0.247505   -1.611295   -0.125172
H      -2.063777    0.189307   -1.817770
H      -4.275689    0.024929   -1.292623
H      -1.288003   -1.501869    3.015763
H      -3.276858    0.891953    1.591317
