18

O       0.095651    1.383159   -0.046971
C       0.053762   -0.027436   -0.084372
C      -1.360208   -0.564713    0.113062
O      -2.141555    0.020050   -0.959660
C      -3.285699   -0.607336   -1.338249
N      -3.622743   -1.811139   -1.152692
C      -2.693925   -2.669255   -0.481266
C      -1.331697   -2.895937   -1.107367
C      -1.459269   -2.071910    0.148316
H      -0.541278    1.692437   -0.701005
H       0.455948   -0.426022   -1.028740
H       0.690184   -0.389121    0.730074
H      -1.762315   -0.157251    1.050817
H      -3.929336    0.078150   -1.885375
H      -3.166916   -3.518033   -0.000478
H      -0.888978   -3.882385   -1.026409
H      -1.136964   -2.388950   -2.046349
H      -1.099445   -2.509176    1.075075
