23

C       0.301385    1.421332   -3.041120
C       0.380785    0.109053   -2.257326
C       0.954897   -1.048947   -3.085985
C       0.989431   -2.361766   -2.325919
C       1.943946   -3.476966   -2.611566
C       2.992628   -3.435134   -3.704862
C       2.076794   -2.702060   -1.292325
C       3.212511   -1.794119   -1.034858
O       3.712835   -1.637061    0.055022
H       1.292862    1.740048   -3.381846
H      -0.334369    1.317372   -3.927560
H      -0.112688    2.226800   -2.427141
H       0.995722    0.250606   -1.359726
H      -0.618983   -0.167152   -1.897519
H       0.339348   -1.188724   -3.985422
H       1.949994   -0.771612   -3.449241
H       0.001078   -2.678313   -1.999063
H       1.536267   -4.473700   -2.461743
H       3.386275   -2.433407   -3.887159
H       3.839916   -4.081998   -3.455006
H       2.566646   -3.795174   -4.647620
H       1.750130   -3.213313   -0.392688
H       3.604284   -1.239935   -1.915475
