14

O       0.003339    0.040471    0.003851
C      -0.011156    1.235070    0.010328
C      -1.145885    2.274351    0.031596
C      -0.678525    3.070777    1.264848
O       0.775141    3.037384    1.172286
C       1.081991    2.310594    0.000513
O       0.742482    3.049340   -1.154660
C      -0.713204    3.083519   -1.206009
H      -2.167570    1.904298    0.044028
H      -1.012758    4.114336    1.249963
H      -0.992088    2.606637    2.206044
H       2.133057    2.037274   -0.015646
H      -1.053149    2.629087   -2.142771
H      -1.046709    4.126829   -1.170970
