16

C      -0.091353    1.528111    0.055875
C       0.150213    0.056774   -0.003216
O      -0.771518   -0.821700    0.658311
C       0.615397   -0.940510    0.978729
C       1.287267   -1.795670   -0.148062
N       0.469742   -2.797614   -0.825448
C      -0.112759   -1.904779   -1.720174
O      -0.964780   -2.034706   -2.551556
C       0.779629   -0.750900   -1.184144
H       0.813708    2.080724   -0.215176
H      -0.884660    1.814595   -0.643109
H      -0.397713    1.822698    1.062955
H       0.900271   -0.850618    2.021527
H       2.342570   -2.033413   -0.017492
H       0.055463   -3.641963   -0.454387
H       1.446756   -0.222122   -1.860916
