23

C      -0.120160    1.506022    0.018415
C       0.038605   -0.017876    0.068750
C       0.782406   -0.516750    1.281836
C       2.269373   -0.264242    1.681004
C       1.714202   -1.173465    2.818151
C       2.440803   -1.695258    4.028188
C       0.442734   -0.264823    2.789067
C       1.057479   -2.004796    1.669812
O       0.011662   -2.906234    1.916949
H       0.853743    2.006513    0.002966
H      -0.668493    1.815749   -0.876468
H      -0.669181    1.875974    0.890882
H      -0.950632   -0.494233    0.046194
H       0.561585   -0.365603   -0.832034
H       3.036106   -0.698806    1.030972
H       2.524692    0.758046    1.970995
H       2.754613   -0.880910    4.690312
H       1.799249   -2.370317    4.605571
H       3.335478   -2.256310    3.736660
H       0.573828    0.757819    3.154706
H      -0.494811   -0.674936    3.182705
H       1.755997   -2.538141    1.017106
H      -0.637397   -2.489471    2.492728
