17

N       0.002780   -1.131456   -0.183931
C      -0.010945    0.019902   -0.087183
C      -0.002812    1.475123    0.036574
C       1.423893    2.058093    0.027544
C       1.427856    3.576262    0.157783
C       2.829033    4.232538    0.013147
N       2.744129    5.060984   -1.201573
C       1.556018    4.940446   -1.618339
O       0.674571    4.157336   -0.945191
H      -0.580342    1.906881   -0.786818
H      -0.519998    1.748654    0.964013
H       2.003837    1.633939    0.854673
H       1.931998    1.774030   -0.900335
H       0.918616    3.879973    1.078745
H       3.088696    4.859665    0.871563
H       3.623641    3.486416   -0.099099
H       1.143387    5.421264   -2.498167
