21

C      -0.937760    1.232154    0.155247
C      -0.057330    0.005043   -0.026479
C       1.208886    0.099326   -0.926140
C       2.026519   -0.682887    0.145634
C       3.267388    0.013414    0.736141
C       2.709348    1.115798    1.653268
C       1.327809    0.616935    2.102243
O       0.713195    1.025135    3.055766
C       0.857425   -0.483401    1.152030
H      -0.353254    2.112082    0.443947
H      -1.461319    1.471544   -0.776978
H      -1.689128    1.070287    0.934680
H      -0.675070   -0.840521   -0.345795
H       1.139660   -0.355547   -1.916978
H       1.557268    1.130241   -1.052254
H       2.223892   -1.716713   -0.143080
H       3.843179   -0.705200    1.330790
H       3.936182    0.398606   -0.039693
H       3.332813    1.354452    2.517705
H       2.554360    2.057197    1.109472
H       0.476612   -1.327771    1.730869
