14

C       0.155327    1.520377    0.021312
C       0.080371    0.068279    0.010514
C       0.005890   -1.133510    0.010883
C      -0.040178   -2.566789   -0.013509
O      -0.498859   -3.253134    1.159482
C      -1.320101   -3.331603   -0.009853
C      -2.602183   -2.685182    0.020467
C      -3.692355   -2.179858    0.018450
H       1.191978    1.866123   -0.053232
H      -0.403120    1.951894   -0.816518
H      -0.266819    1.926174    0.946986
H       0.805468   -3.054751   -0.499237
H      -1.307195   -4.308123   -0.494692
H      -4.651402   -1.723629    0.025549
