18

O       0.814895   -0.687111    0.954621
C       0.091065   -0.042486   -0.072852
C      -1.377377   -0.448614   -0.024874
N      -2.021000   -0.086531    1.282071
C      -3.468464   -0.403365    0.952182
C      -3.391998    0.789245   -0.046800
C      -2.420313    1.359846    1.026422
C      -2.347071    0.240714   -1.015247
O      -2.277613    0.327208   -2.210608
H       0.275803   -0.602129    1.751661
H       0.195717    1.052745   -0.012298
H       0.520640   -0.353205   -1.029890
H      -1.428040   -1.537118   -0.143296
H      -3.646864   -1.411780    0.569431
H      -4.108103   -0.204117    1.814724
H      -4.244750    1.318405   -0.467658
H      -2.930701    1.764528    1.902645
H      -1.615876    2.030951    0.718183
