16

N      -0.238072    1.179246    0.147440
C      -0.143646   -0.151585   -0.145067
O       0.595435   -0.645420   -0.959656
O      -0.981504   -0.856851    0.672574
C      -1.019144   -2.240495    0.423191
C      -2.268031   -2.997241    0.760638
C      -3.477956   -2.176575    0.323031
O      -2.935100   -1.987074   -1.011008
C      -1.820595   -2.812993   -0.695027
H       0.179478    1.804357   -0.520548
H      -1.045835    1.504367    0.651246
H      -0.086849   -2.756888    0.631524
H      -2.286667   -3.856861    1.416823
H      -4.401368   -2.762647    0.275870
H      -3.656150   -1.228278    0.839877
H      -1.442924   -3.479242   -1.461741
