22

C      -0.113252    1.650018    0.000511
C      -0.003255    0.117059   -0.008287
C       0.692616   -0.406364   -1.277462
C      -0.043053   -0.114062   -2.581228
O       0.650485   -0.793823   -3.616956
C       0.739336   -0.415806    1.231725
C       0.004877   -0.146951    2.561903
C       0.696051   -0.737005    3.706155
N       1.255395   -1.208949    4.600554
H       0.881392    2.110586   -0.030534
H      -0.676724    2.017948   -0.861158
H      -0.625019    2.021109    0.893606
H      -1.022350   -0.299037    0.011548
H       1.706677    0.008292   -1.345532
H       0.807360   -1.494540   -1.207796
H      -1.086756   -0.463444   -2.503996
H      -0.074991    0.968405   -2.775730
H       0.228496   -0.579557   -4.453955
H       0.881588   -1.496969    1.130285
H       1.742180    0.025281    1.281910
H      -0.097908    0.927474    2.745654
H      -1.011207   -0.557984    2.522229
