12

N       0.010288    1.317287    0.007596
C       0.069723   -0.028680    0.000507
O       1.074037   -0.714433   -0.012441
C      -1.333116   -0.677745    0.010794
O      -2.337538   -0.015003    0.024029
C      -1.296073   -2.203541    0.002626
C      -2.617794   -2.813357    0.011890
N      -3.659194   -3.311205    0.019091
H       0.858379    1.858634    0.002458
H      -0.889919    1.769545    0.018729
H      -0.721606   -2.529997   -0.872053
H      -0.705424   -2.538831    0.863080
