21

C      -0.294400    1.343469   -0.150621
O      -0.085841   -0.051435   -0.111542
C       0.792062   -0.546329   -1.098102
C       0.204702   -0.555284   -2.549553
C       0.044694   -2.100885   -2.480608
C       0.808470   -2.108410   -1.120467
C       2.270930   -2.439557   -1.193331
C       3.046840   -1.357118   -1.117717
C       2.261207   -0.077477   -0.947091
H       0.630049    1.908371    0.038490
H      -0.707572    1.674833   -1.114708
H      -1.014172    1.580573    0.636664
H      -0.728383    0.001374   -2.660481
H       0.908424   -0.210304   -3.311265
H      -0.995167   -2.423562   -2.390621
H       0.516291   -2.665951   -3.287981
H       0.287124   -2.599384   -0.293658
H       2.632666   -3.456425   -1.307659
H       4.131469   -1.366742   -1.150102
H       2.539069    0.687892   -1.682846
H       2.428940    0.360812    0.046275
