21

O       1.805877    1.564565    0.542286
C       0.846612    0.615704    0.090063
C       1.296741   -0.035800   -1.229879
N       0.151932   -0.618321   -1.925391
C      -0.475118    0.212589   -2.952575
C       0.351510   -0.967437   -3.326563
C       0.541295   -0.404396    1.173254
C      -0.700117   -0.307522    1.979230
N      -0.527673   -1.393505    1.002609
H       2.585380    1.080232    0.836134
H      -0.056819    1.201281   -0.120350
H       1.812243    0.730037   -1.834436
H       2.017507   -0.838558   -1.025337
H      -1.558778    0.165634   -3.005800
H      -0.049979    1.197608   -3.138609
H       1.328928   -0.768710   -3.763037
H      -0.116526   -1.890243   -3.656452
H       1.439685   -0.811007    1.643854
H      -0.707790   -0.624338    3.018572
H      -1.382997    0.508135    1.751754
H      -1.018454   -1.203369    0.131786
