18

C       0.094437    1.514142    0.041494
C       0.044781    0.059392    0.039542
C      -0.001886   -1.145354    0.030649
C       0.001922   -2.585491    0.012811
O       1.029490   -3.171921   -0.749803
C      -0.462610   -3.350467    1.246534
C      -1.289000   -3.370152   -0.017651
C      -2.637168   -2.693927   -0.088939
H       0.987577    1.875591   -0.480290
H      -0.777643    1.945416   -0.462622
H       0.122764    1.915142    1.060883
H       1.868060   -2.870887   -0.381754
H       0.109311   -4.236878    1.497147
H      -0.827278   -2.774500    2.090408
H      -1.192314   -4.278884   -0.605199
H      -2.636844   -1.753455    0.469097
H      -2.910647   -2.465595   -1.124480
H      -3.416488   -3.338370    0.332089
