17

C      -0.084369    1.539615   -0.005709
C      -0.022913    0.004396   -0.001665
C       1.146450   -0.545663   -0.896202
C       2.030130   -0.679548    0.371281
C       0.754262   -0.555727    1.244295
C      -1.336435   -0.567439   -0.245009
C      -2.420775   -1.049009   -0.445961
H       0.907711    1.964787    0.178053
H      -0.443129    1.910562   -0.970473
H      -0.762472    1.902365    0.772539
H       0.893221   -1.514603   -1.331053
H       1.491039    0.119409   -1.692222
H       2.608461   -1.599803    0.472916
H       2.710135    0.166309    0.499849
H       0.793144    0.101506    2.116789
H       0.364926   -1.528152    1.552309
H      -3.377101   -1.474751   -0.623066
