23

C      -0.331942    1.165181    0.381688
O       0.033031   -0.149397    0.023244
C       0.848612   -0.331184   -1.147858
C       0.093632    0.109030   -2.412064
C       2.187220    0.411645   -1.030047
C       1.060814   -1.865445   -1.194959
C       1.608767   -2.422744    0.120236
C       0.612916   -3.108030    1.031575
O       2.780405   -2.314847    0.406458
H       0.533314    1.786752    0.647599
H      -0.900317    1.676998   -0.406930
H      -0.973557    1.076324    1.262208
H      -0.024868    1.195789   -2.454366
H       0.643978   -0.193814   -3.307888
H      -0.898997   -0.349885   -2.443349
H       2.728282    0.108607   -0.132384
H       2.817304    0.183630   -1.894817
H       2.036938    1.494902   -1.012438
H       0.103885   -2.338361   -1.435978
H       1.776378   -2.099056   -1.988343
H       0.185318   -3.984260    0.529337
H       1.098149   -3.417339    1.958192
H      -0.212119   -2.419436    1.238169
