17

O       0.051969    0.091884    0.469848
C       0.019424    1.238186    0.128450
C      -1.236801    2.145673    0.027008
C      -0.648283    3.507343    0.327363
C       0.677223    3.502541    0.175522
C       1.846889    4.309735    0.632948
C       2.712990    3.162357    1.218332
O       2.449008    1.990949    0.429363
C       1.210237    2.158829   -0.236885
H      -1.663112    2.057294   -0.982238
H      -2.013566    1.826203    0.728922
H      -1.239800    4.332677    0.706607
H       2.367007    4.784916   -0.207693
H       1.605162    5.077163    1.371238
H       3.786787    3.362323    1.171186
H       2.436891    2.978798    2.266070
H       1.374525    2.058761   -1.323589
