17

C       0.033373    1.516837   -0.074741
N       0.042503    0.071013    0.101462
C      -0.899398   -0.556063    0.997395
C       0.047095   -1.622838    1.395832
C       1.124364   -0.588909    0.888041
C       1.122587    0.046150    2.312181
C      -0.271312   -0.566791    2.458263
C      -1.070798   -0.699500    3.623174
N      -1.732966   -0.797507    4.569320
H       0.911014    1.809346   -0.659627
H      -0.857551    1.793188   -0.647368
H       0.026580    2.095720    0.860911
H      -1.972549   -0.573434    0.854799
H      -0.016069   -2.700137    1.419141
H       2.054070   -0.804475    0.365897
H       1.837072   -0.467510    2.958961
H       1.245410    1.128032    2.408146
