21

C       2.014082    2.217239    0.502564
C       1.643166    0.751184    0.535266
C       1.159951   -0.127075   -0.553714
N       2.518259   -0.364408    0.116193
C       3.164466    0.029772   -1.189156
C       1.799221    0.064297   -1.938306
C       1.612536   -1.207870   -2.774449
C       1.416209    1.290075   -2.767749
H       2.520355    2.530056   -0.410419
H       1.113911    2.831932    0.610069
H       2.675718    2.448055    1.344866
H       1.188386    0.482864    1.489573
H       0.330608   -0.811531   -0.384401
H       3.736264    0.961743   -1.147529
H       3.830985   -0.767944   -1.524720
H       1.864828   -2.101935   -2.195968
H       0.574293   -1.305678   -3.112376
H       2.252626   -1.185096   -3.663629
H       2.045612    1.361562   -3.662628
H       0.376132    1.214352   -3.105671
H       1.514248    2.225582   -2.214450
