21

C       0.020047    1.455060    0.008942
C      -0.001883   -0.053006   -0.009775
C      -0.869171   -0.826754    0.957556
C       0.634142   -0.942191    1.043039
C       1.379012   -1.944373    0.144158
O       2.091267   -2.903018    0.859228
C       0.366480   -2.285910   -0.985263
C       0.518185   -0.769831   -1.283533
C       2.026206   -0.956220   -0.900861
H       0.973714    1.847520   -0.363059
H      -0.775186    1.871584   -0.621562
H      -0.126250    1.842779    1.022207
H      -1.326680   -0.224560    1.737605
H      -1.489150   -1.660734    0.652141
H       1.167853   -0.552728    1.902965
H       2.545643   -3.472719    0.230262
H       0.836129   -2.888931   -1.767472
H      -0.608952   -2.706445   -0.741916
H       0.222202   -0.354890   -2.246703
H       2.568858   -0.090947   -0.511435
H       2.612819   -1.463037   -1.674228
