16

C      -0.244800    1.535216   -0.040592
N       0.182908    0.137470    0.063584
C       1.403015   -0.496532   -0.297453
C       2.716139    0.187140    0.229746
N       2.344248    1.445803    0.919863
C       2.211551    0.150032    1.612090
C       0.867296   -0.530195    1.129925
C       0.248086   -1.591048    1.862655
N      -0.218936   -2.445038    2.488769
H       0.400409    2.093267   -0.720482
H      -1.271391    1.548063   -0.423380
H      -0.217991    2.031231    0.930270
H       1.406228   -1.299628   -1.027132
H       3.711794    0.005196   -0.150020
H       3.205830    1.879572    1.250276
H       2.716667   -0.080793    2.539707
