16

C      -0.155667    1.414319    0.203246
C       0.045553   -0.084620   -0.014541
O       0.833171   -0.309828   -1.201216
C       1.948312   -1.046924   -0.894555
N       2.841770   -1.415679   -1.710580
C       1.918570   -1.331351    0.552485
C       2.958805   -2.102091    1.268260
O       2.919949   -2.321856    2.457110
C       0.813340   -0.780694    1.069069
H       0.805184    1.911320    0.360697
H      -0.641778    1.855043   -0.670521
H      -0.789687    1.587014    1.078087
H      -0.931593   -0.565276   -0.169058
H       2.634526   -1.091696   -2.655780
H       3.783065   -2.466417    0.626608
H       0.504583   -0.815385    2.105640
