17

C      -0.019110    1.508783    0.089932
C      -0.006918    0.015544    0.023364
C      -0.025896   -0.785189   -1.068420
C      -0.003156   -2.263176   -0.695373
C       0.032610   -2.203253    0.804671
C       0.029022   -0.888221    1.162137
O       0.060133   -0.723251    2.502631
C       0.083769   -1.997706    3.017071
C       0.069370   -2.939583    2.025865
H       0.869620    1.889169    0.606936
H      -0.047798    1.948053   -0.910223
H      -0.888200    1.872888    0.650226
H      -0.053893   -0.441015   -2.094425
H      -0.886218   -2.786243   -1.085722
H       0.869606   -2.769889   -1.128152
H       0.109912   -2.059585    4.092151
H       0.083215   -4.007893    2.178437
