20

C       0.104175    1.533028    0.049397
C      -0.042572    0.045093   -0.058793
C      -0.935135   -0.761203    0.795319
N       0.527322   -0.922227    0.976710
C       0.964606   -1.809338   -0.151283
C       2.422907   -2.289687   -0.101583
O       2.016668   -3.674196   -0.117686
C       0.622111   -3.310651   -0.118163
C       0.471590   -0.808157   -1.220017
H       1.115613    1.852384   -0.224088
H      -0.600971    2.042148   -0.618425
H      -0.093601    1.869827    1.071107
H      -1.408545   -0.267328    1.638489
H      -1.511008   -1.585306    0.377285
H       3.044988   -2.032950   -0.968869
H       2.945305   -2.016738    0.823178
H       0.106777   -3.635487    0.795329
H       0.094183   -3.707046   -0.995094
H      -0.270518   -1.155124   -1.946174
H       1.300301   -0.342943   -1.760667
