22

C       0.277702    1.206619    0.221241
C       0.357914   -0.292876    0.331288
N       1.469680   -0.873084    0.524821
O      -0.892446   -0.811359    0.190754
C      -1.210404   -2.224898    0.238864
C      -0.559380   -2.997043   -0.914454
C      -0.913262   -2.831262    1.615172
C      -2.735783   -2.175983    0.022317
O      -3.237957   -3.501095    0.040115
H       1.272971    1.633836    0.334297
H      -0.140920    1.493263   -0.748558
H      -0.388103    1.607906    0.991649
H       1.382236   -1.883383    0.579047
H       0.510986   -3.158105   -0.773765
H      -1.045068   -3.971648   -1.002171
H      -0.701997   -2.454740   -1.853862
H      -1.297920   -2.176068    2.402363
H      -1.421294   -3.795443    1.690740
H       0.151802   -2.989262    1.794327
H      -3.178267   -1.561546    0.819368
H      -2.932545   -1.678141   -0.937886
H      -4.187880   -3.466135   -0.099944
