21

C       0.005130    1.434281    0.022530
N       0.000796   -0.009560    0.022423
C      -0.005625   -0.801692   -1.112444
C      -0.002090   -2.116858   -0.711822
N      -0.096006   -3.271939   -1.520534
C       0.014971   -2.133313    0.716904
C       0.010869   -3.374685    1.555471
C       0.021458   -0.814136    1.138150
C       0.045770   -0.234519    2.514432
H       0.911503    1.838565    0.489231
H      -0.033054    1.787973   -1.009353
H      -0.862699    1.841206    0.554657
H      -0.024562   -0.358429   -2.095502
H       0.103165   -3.070137   -2.492802
H       0.540856   -3.998932   -1.214321
H       0.953583   -3.935349    1.480453
H      -0.140517   -3.150972    2.615239
H      -0.788686   -4.058918    1.246232
H       0.943071    0.370997    2.699669
H      -0.820893    0.409495    2.713317
H       0.035293   -1.032462    3.259713
