18

C      -0.181764    0.918607    1.209287
C       0.056089   -0.130019    0.161903
N       1.153874   -0.228548   -0.460713
O      -1.063920   -0.904806    0.018585
C      -1.032573   -1.958861   -0.933026
C      -2.414500   -2.630104   -0.919180
O      -2.482799   -3.574009   -1.947193
C      -2.694648   -3.281405    0.423948
O      -2.959756   -4.457196    0.500762
H       0.710016    1.533831    1.317134
H      -1.033518    1.546485    0.930041
H      -0.424736    0.449066    2.167674
H       1.165827   -0.987452   -1.140427
H      -0.841508   -1.577179   -1.943107
H      -0.252551   -2.691153   -0.686259
H      -3.168168   -1.834293   -1.052602
H      -2.717763   -4.411791   -1.515692
H      -2.641321   -2.627796    1.313697
