18

N      -0.011556    1.298811   -0.132155
C       0.011683   -0.069616    0.129426
O       1.056594   -0.682164    0.279910
N      -1.218964   -0.673169    0.156799
C      -2.477058   -0.048498   -0.253222
C      -3.489301   -1.206374   -0.211963
C      -2.624746   -2.445421   -0.498218
C      -1.317355   -2.133430    0.241012
H       0.875529    1.732045    0.075603
H      -0.810234    1.831565    0.176560
H      -2.770915    0.763606    0.425256
H      -2.392187    0.378453   -1.262184
H      -3.930374   -1.279373    0.788030
H      -4.304924   -1.066993   -0.925148
H      -3.086641   -3.377055   -0.163579
H      -2.434817   -2.532282   -1.573772
H      -0.431324   -2.588300   -0.204726
H      -1.365168   -2.460664    1.288767
