22

C      -0.696515    1.464326   -0.180885
C      -0.375387    0.068657   -0.732434
C      -1.565078   -0.862111   -0.617369
C      -1.611838   -2.341499   -0.589796
C      -0.499451   -3.034866    0.195596
C       0.892833   -3.187317   -0.389897
O       1.674866   -3.884210    0.571852
C      -0.816819   -2.047887    1.347218
N      -2.031613   -1.506377    0.628544
H       0.157677    2.139068   -0.291238
H      -1.546928    1.910036   -0.707979
H      -0.957205    1.415579    0.880978
H      -0.103529    0.142842   -1.793328
H       0.503862   -0.330120   -0.222583
H      -2.436083   -0.447743   -1.128447
H      -2.351394   -2.880620   -1.176522
H      -0.833823   -4.035667    0.485010
H       0.824443   -3.749613   -1.336502
H       1.338192   -2.210903   -0.625846
H       2.570917   -3.963919    0.232371
H      -1.127271   -2.532027    2.273863
H      -0.056084   -1.299005    1.586960
