16

N      -0.154298   -1.090117   -0.366449
C      -0.069157    0.033490   -0.111981
C       0.053839    1.456902    0.216808
C       1.476347    1.947436    0.138066
C       2.666978    1.576986    1.023788
C       3.377193    2.768153    0.330916
O       3.536089    2.317881   -1.045522
C       2.126489    2.462648   -1.164723
C       1.967026    3.388439   -0.007070
H      -0.583281    2.027095   -0.470692
H      -0.357685    1.614282    1.221817
H       2.458978    1.785456    2.076936
H       3.134076    0.595197    0.904982
H       4.256917    3.262120    0.735672
H       1.665844    2.418118   -2.143104
H       1.495983    4.351101    0.136684
