15

O       0.453250    0.906035   -0.659083
C       0.149174   -0.194741    0.126814
C       0.046209   -0.075444    1.675050
C      -1.168818   -1.040487    1.626400
C      -1.341487   -0.696157    0.117174
O      -2.133561    0.458601   -0.098824
C      -1.718796   -1.779115   -0.792218
N      -2.021275   -2.649492   -1.490829
H      -0.295860    1.512649   -0.598068
H       0.822041   -1.006320   -0.160996
H       0.916512   -0.381164    2.256731
H      -0.248866    0.934202    1.968657
H      -0.889476   -2.086361    1.770544
H      -2.032299   -0.808411    2.252669
H      -3.060073    0.240070    0.049146
