23

C      -0.150762    1.585355    0.113777
C       0.039241    0.085500    0.021556
C       0.576392   -0.621534   -1.205565
C       1.077763    0.089289   -2.452891
C       2.441680   -0.443096   -2.928531
C       3.637146    0.033290   -2.091597
O       3.685855   -0.427884   -0.754511
C       2.710390    0.144107    0.106855
C       1.392909   -0.602583    0.068689
H       0.621156    2.151516   -0.412449
H      -1.116092    1.877397   -0.314771
H      -0.140607    1.914820    1.158765
H      -0.746159   -0.459688    0.540289
H       0.108785   -1.578128   -1.427035
H       0.336594   -0.035150   -3.251445
H       1.156071    1.170860   -2.291058
H       2.428920   -1.539915   -2.945468
H       2.623901   -0.112998   -3.960210
H       4.564753   -0.322442   -2.553329
H       3.666712    1.137904   -2.104994
H       3.135296    0.092756    1.115500
H       2.582181    1.209158   -0.133805
H       1.424554   -1.540200    0.617201
