13

N      -0.056252    1.253631    0.413336
C      -0.009510    0.029763    0.050773
N       1.120471   -0.680269   -0.354213
N       1.172268   -1.968417   -0.736438
C       0.038172   -2.598424   -0.718703
N      -1.178464   -2.078317   -0.353288
C      -1.216187   -0.830267    0.014772
C      -2.456180   -0.251133    0.401468
C      -3.511940    0.225797    0.726032
H       0.861884    1.700426    0.380605
H       2.012060   -0.205921   -0.374248
H       0.055576   -3.637466   -1.022703
H      -4.440796    0.653713    1.013963
