20

C       0.987613    0.665310    1.000749
C      -0.076204    0.099454    0.058601
O      -1.032318    1.091433   -0.316711
C       0.575671   -0.515495   -1.171298
C       0.797926   -1.956236   -1.434276
C      -0.332090   -2.844969   -0.943950
O      -0.403051   -2.996649    0.459395
C      -1.307472   -1.896735   -1.700163
N      -0.157605   -1.123901   -2.295754
H       1.656163   -0.126985    1.352622
H       1.597069    1.425130    0.495771
H       0.510146    1.131415    1.866388
H      -0.649597   -0.654447    0.598056
H      -0.601928    1.708101   -0.919449
H       1.376572    0.110117   -1.570937
H       1.742580   -2.326127   -1.820759
H      -0.289724   -3.825047   -1.435416
H      -1.107888   -3.620450    0.661726
H      -1.870202   -2.389350   -2.495615
H      -1.983765   -1.288728   -1.095961
