18

C       0.047004    1.544111    0.056093
C      -0.039882    0.046718    0.007933
C      -0.058052   -0.646316   -1.136722
N      -0.107586   -2.044002   -1.192629
C      -0.279484   -2.863739   -0.096555
O      -0.199320   -4.071528   -0.180514
C      -0.636282   -2.110086    1.174930
C      -0.002976   -0.715193    1.313980
O       1.329533   -0.770748    1.834354
H       0.914320    1.858454    0.648666
H       0.138942    1.979070   -0.943283
H      -0.838098    1.984079    0.533778
H      -0.026635   -0.162734   -2.107363
H       0.059530   -2.516503   -2.068149
H      -1.729178   -1.996261    1.161203
H      -0.381207   -2.736018    2.031566
H      -0.558508   -0.166404    2.082321
H       1.905328   -1.090288    1.130494
