18

C      -0.173526   -1.176032    0.156983
C      -0.130076    0.026219    0.135753
C      -0.064447    1.463157    0.068246
C       0.581211    2.186061    1.208088
N       1.270230    2.102423   -0.082162
C      -1.159123    2.161564   -0.713735
C      -1.574157    1.583071   -2.084991
C      -2.962449    1.424186   -1.434651
O      -2.470277    1.910795   -0.165865
H      -0.218759   -2.236378    0.195316
H       0.216384    3.174906    1.471769
H       0.939739    1.587274    2.039402
H       1.988094    1.382875   -0.047772
H      -0.922027    3.232935   -0.727493
H      -1.510595    2.276415   -2.923934
H      -1.080690    0.645801   -2.344870
H      -3.749761    2.071952   -1.839308
H      -3.345456    0.400896   -1.354300
