17

C       0.097113    1.315598    0.146267
O       0.029646   -0.093427    0.019803
C       0.606583   -0.579172   -1.142130
O       2.014718   -0.346609   -1.140067
C       2.712035   -1.449613   -1.708621
C       1.763262   -2.628876   -1.627111
N       1.238083   -2.813772   -0.262122
C       0.440054   -2.079365   -1.263454
H       1.132262    1.659606    0.249650
H      -0.357893    1.817164   -0.722148
H      -0.465200    1.580972    1.044051
H       0.160114   -0.072330   -2.020651
H       2.975146   -1.250949   -2.759247
H       3.634647   -1.596492   -1.137060
H       1.884726   -3.476720   -2.292435
H       0.859296   -3.753785   -0.172601
H      -0.496723   -2.485056   -1.627372
