13

N      -0.047716    1.339226    0.010792
C      -0.016984    0.056828    0.003382
C       1.196812   -0.775485   -0.008443
N       1.251341   -2.066177   -0.016056
N       0.066412   -2.719743   -0.012786
C      -1.141558   -2.107444   -0.002201
C      -1.243208   -0.748623    0.006073
C      -2.527701   -0.137019    0.017107
N      -3.587578    0.329175    0.025995
H       0.899375    1.723184    0.007385
H       2.161023   -0.272459   -0.011270
H       0.146872   -3.722833   -0.018908
H      -2.006088   -2.759773   -0.000789
