18

C      -0.292964    1.580411    0.105648
C      -0.009542    0.102571   -0.044558
C       0.615296   -0.613588   -1.198371
C       1.483616    0.036964   -2.246239
N       1.717273    1.496042   -2.136996
C       2.699968    0.554766   -1.566841
C       2.526745    0.285229   -0.071527
N       1.309846   -0.542928    0.117022
H       0.418416    2.209072   -0.422348
H      -1.292654    1.797282   -0.287219
H      -0.298704    1.841318    1.171007
H      -0.762361   -0.494408    0.474291
H       0.225722   -1.590613   -1.479365
H       1.522454   -0.421976   -3.228182
H       2.061954    1.840965   -3.030238
H       3.689146    0.497736   -2.011292
H       3.379404   -0.295466    0.296031
H       2.477891    1.209855    0.513604
