16

C      -0.062506    1.440510    0.010980
C       0.001193   -0.010912    0.002684
C       0.072116   -1.213821   -0.004275
C       0.123259   -2.634945   -0.012323
N       1.190720   -3.349212   -0.021925
C       0.742199   -4.745213   -0.027172
C      -0.784328   -4.724509   -0.018916
N      -1.553123   -5.735134   -0.020345
N      -1.073045   -3.361913   -0.009920
H       0.942108    1.875641    0.003940
H      -0.598962    1.816252   -0.867011
H      -0.582437    1.806819    0.902794
H       1.123691   -5.267856   -0.911401
H       1.133071   -5.277480    0.847163
H      -2.538295   -5.466140   -0.013618
H      -1.992734   -2.954443   -0.002784
