19

C      -0.346491    1.406329   -0.085081
N       0.005911   -0.002246    0.032033
C       1.368652   -0.398911   -0.288597
C       0.866514   -0.467354    1.117518
C       1.426580    0.442327    2.184755
C       0.601663    0.574096    3.504866
C       1.818782   -0.080243    4.204742
O       2.115853   -0.387590    5.326325
N       2.480229   -0.178549    3.002443
H       0.483278    2.108385    0.091241
H      -0.721031    1.584057   -1.098010
H      -1.152294    1.640110    0.617888
H       1.483138   -1.300060   -0.885539
H       2.087415    0.389891   -0.515125
H       0.574317   -1.441661    1.510729
H       1.733263    1.406097    1.767777
H       0.387654    1.592947    3.831349
H      -0.310434   -0.024838    3.539834
H       3.397911   -0.528036    2.767306
