20

C      -1.383138    1.569731    1.869712
C      -1.392093    0.089501    1.498531
N      -0.103107   -0.516072    1.845612
C       0.231374   -1.851464    1.383179
C      -0.700831   -2.699756    0.545094
O      -1.810707   -3.178086    1.295087
C       0.945619   -0.650034    0.816005
C       0.729541   -0.240535   -0.545357
C       0.577736    0.139787   -1.677188
H      -0.633264    2.112330    1.285336
H      -2.359665    2.021004    1.668177
H      -1.148526    1.700969    2.929782
H      -2.155017   -0.451385    2.066764
H      -1.643725   -0.018895    0.434807
H       0.787961   -2.429285    2.125057
H      -1.120952   -2.127908   -0.283658
H      -0.124789   -3.529938    0.106996
H      -1.470114   -3.696203    2.031858
H       1.946938   -0.436919    1.185236
H       0.444723    0.467318   -2.678696
