19

C      -0.147323    1.600248   -0.122155
C       0.081943    0.096413   -0.085295
C       0.639456   -0.651628   -1.307583
C       2.090358   -0.313906   -1.617731
C       2.692497    0.990025   -1.579738
N       3.210650    2.025791   -1.578928
C       1.735529   -1.176220   -0.402408
N       1.199946   -0.475218    0.735617
C       2.045289    0.319627    1.610268
H       0.727505    2.159883   -0.454986
H      -0.975013    1.822487   -0.803815
H      -0.433161    1.965559    0.869848
H      -0.851106   -0.390735    0.227589
H       0.042514   -1.184971   -2.035781
H       2.472908   -0.914817   -2.439894
H       2.166817   -2.168038   -0.307659
H       2.570287    1.150660    1.119958
H       1.439790    0.725361    2.426853
H       2.796483   -0.340632    2.056706
