17

C       0.189072    1.578816    0.234946
C       1.338345    0.686450    0.010131
C       1.708075   -0.094257    1.282059
N       2.171819    0.689161    2.405407
C       1.316688    1.036361    3.271217
O      -0.012274    0.777175    3.338718
C      -0.544794   -0.300308    2.540209
C       0.240427   -0.599521    1.274478
N      -0.087420    0.145828    0.003697
H       0.005729    2.026150    1.206357
H      -0.127072    2.190459   -0.604554
H       1.939499    0.717045   -0.892025
H       2.433326   -0.884155    1.076367
H       1.605465    1.664524    4.112519
H      -0.558932   -1.191331    3.179288
H      -1.578247   -0.022989    2.313933
H       0.160192   -1.665772    1.051425
