16

O       0.471132    1.249769   -0.378419
C       0.047346   -0.054338   -0.081723
C       0.356275   -0.635099    1.362555
N      -1.105068   -0.730273    1.537687
C      -2.158277   -1.400021    2.101649
C      -3.185846   -1.305318    1.168526
O      -4.448418   -1.763249    1.410502
C      -2.718548   -0.643021   -0.008845
C      -1.409257   -0.306371    0.277457
H      -0.040755    1.854550    0.170581
H       0.446241   -0.687294   -0.879013
H       0.867893   -1.602641    1.366757
H       0.848473    0.054162    2.055023
H      -2.161450   -1.797312    3.102240
H      -4.984560   -1.606382    0.628152
H      -3.284380   -0.449425   -0.907604
