17

C       1.230104    1.074568   -0.327624
O       1.120169   -0.327509   -0.463157
C      -0.035296   -0.734095   -1.161357
C      -0.004373   -2.267575   -1.282845
O      -1.161120   -2.712302   -1.930259
C       1.237883   -2.704861   -2.053140
O       1.124893   -3.236258   -3.133139
C       2.628941   -2.467026   -1.428795
O       3.615765   -2.402571   -2.108708
H       1.283903    1.571375   -1.307214
H       0.376376    1.489261    0.228204
H       2.149180    1.276409    0.226176
H      -0.952843   -0.437670   -0.631959
H      -0.072602   -0.294048   -2.170718
H       0.056012   -2.688185   -0.265997
H      -0.859171   -3.100108   -2.767797
H       2.647884   -2.375384   -0.326607
