20

C       0.020777    1.483172    0.017604
C       0.017075   -0.029752    0.001854
C       0.679332   -0.750768   -1.197392
C       0.409270   -2.174682   -0.725448
C       0.417025   -2.169830    0.769534
C       0.707041   -0.739162    1.207036
O       2.074616   -0.438849    1.405403
N      -0.867933   -2.194746    0.032519
C      -1.328193   -0.778096    0.034723
H       1.043105    1.862665    0.113350
H      -0.412933    1.896909   -0.899073
H      -0.556260    1.871341    0.864499
H       0.188355   -0.515828   -2.147326
H       1.745092   -0.522501   -1.303972
H       0.640301   -3.051884   -1.317664
H       0.664645   -3.030283    1.380127
H       0.211634   -0.474924    2.147790
H       2.585213   -0.899939    0.732126
H      -1.913256   -0.580388    0.939017
H      -1.959287   -0.588392   -0.839275
