21

C      -0.079080    1.519326    0.238334
C       0.009381    0.020804   -0.063297
C       0.770392   -0.240899   -1.347792
C       0.496843   -1.459252   -2.192465
C       0.088511   -0.092105   -2.683283
N       0.692442   -0.645511    1.049382
C      -0.114352   -0.965001    2.220653
C       0.353698   -2.039503    1.301375
H       0.923629    1.939712    0.363826
H      -0.577565    2.047317   -0.579365
H      -0.639744    1.703002    1.160060
H      -1.018573   -0.375915   -0.183811
H       1.807430    0.080530   -1.298909
H       1.335185   -1.953033   -2.671146
H      -0.292434   -2.134298   -1.878486
H      -0.971510    0.142681   -2.689996
H       0.643797    0.354995   -3.500238
H       0.361338   -0.809408    3.184935
H      -1.176217   -0.721866    2.193110
H      -0.398643   -2.507414    0.668810
H       1.179767   -2.688520    1.578184
