17

C      -0.156026    1.348782   -0.052300
O      -0.117866   -0.058199   -0.113829
C       0.809961   -0.539652   -1.064012
C       0.754993   -2.053359   -1.019329
C      -0.487617   -2.728594   -1.666357
O       0.060717   -2.385227   -3.008513
C       1.270478   -2.828000   -2.263711
C       0.365783   -4.015801   -1.824351
O       0.315335   -5.198418   -1.782243
H       0.816934    1.770910    0.245132
H      -0.440554    1.791689   -1.019489
H      -0.903120    1.622402    0.696348
H       0.566745   -0.178023   -2.072588
H       1.829221   -0.196483   -0.817119
H       1.055162   -2.444069   -0.042183
H      -1.546394   -2.557094   -1.490604
H       2.227807   -2.781844   -2.778843
