17

O      -0.010410    1.152283    0.761618
C       0.066222    0.027510   -0.091487
C      -1.288255   -0.651427   -0.226333
C      -1.547023   -2.107816   -0.223400
C      -0.617115   -2.916228    0.696516
O       0.739399   -3.126497    0.409460
C      -0.911843   -1.840091    1.739188
N      -0.468773   -1.444905    2.847053
N      -1.975386   -1.233458    0.971124
H      -0.202450    0.822018    1.649237
H       0.364762    0.402347   -1.076518
H       0.833898   -0.684840    0.229838
H      -2.008308   -0.071163   -0.799163
H      -2.300997   -2.555586   -0.862243
H      -1.124174   -3.850081    0.979840
H       0.825934   -3.895119   -0.163278
H       0.304147   -2.037686    3.156116
