21

C       0.488704    1.455280   -0.354292
C       0.047981    0.024876   -0.008021
O       0.462222   -0.929394   -0.987024
C      -0.331737   -0.968138   -2.134253
C       0.063587   -0.184691   -3.366940
C       0.231355   -1.692516   -3.319874
C       1.613012   -2.306830   -3.265956
C       0.595481   -0.400286    1.280745
C       1.042270   -0.712005    2.351113
H       1.576654    1.496991   -0.449715
H       0.034337    1.776267   -1.294098
H       0.180538    2.143881    0.437341
H      -1.052248    0.003024    0.061474
H      -1.396585   -1.081259   -1.923934
H      -0.712272    0.249036   -3.989314
H       0.972024    0.403778   -3.295020
H      -0.495221   -2.264279   -3.891398
H       2.276316   -1.721166   -2.625782
H       1.575725   -3.322917   -2.859079
H       2.054909   -2.360150   -4.266634
H       1.434591   -1.001042    3.294694
