23

C      -0.032753    1.518688    0.148226
C      -0.185591    0.028703   -0.179330
C       0.687603   -0.467017   -1.339243
C       0.374071    0.224800   -2.664568
C       2.202605   -0.566691   -1.008547
O       2.189206   -2.006161   -1.121387
C       0.796622   -2.000944   -1.432723
C      -0.106768   -3.081187   -0.936451
C       0.225151   -2.963260   -2.420128
H       1.010077    1.775189    0.366308
H      -0.366203    2.155981   -0.676097
H      -0.626460    1.783130    1.028471
H       0.055358   -0.564039    0.711117
H      -1.237628   -0.185531   -0.411154
H       0.591484    1.296609   -2.618079
H       0.969178   -0.202153   -3.477168
H      -0.683830    0.112378   -2.929042
H       2.878057   -0.107762   -1.740689
H       2.489443   -0.242143   -0.000683
H       0.357921   -3.890350   -0.382902
H      -1.108802   -2.823633   -0.608610
H      -0.551571   -2.623050   -3.097767
H       0.905945   -3.695860   -2.840619
