9

F       0.029320    0.043416    0.003049
C      -0.040253    1.352148    0.010783
C      -1.211331    2.020487    0.030597
F      -2.375096    1.417788    0.043678
C      -1.193143    3.477697    0.037959
O      -2.139181    4.206014    0.054986
O       0.096675    4.005303    0.022785
N       1.277478    3.226213    0.002280
N       1.174362    1.989784   -0.002751
