12

N       0.134928    1.385240    0.213831
C      -0.040321    0.010670    0.053015
C      -1.179115   -0.771968    0.001341
C      -0.673306   -2.090800   -0.073368
O      -1.431411   -3.204650   -0.153891
N       0.645359   -2.150539   -0.075927
N       1.020073   -0.829896   -0.012322
H       0.815531    1.781052   -0.423684
H      -0.737296    1.888804    0.126917
H      -2.206351   -0.449981   -0.009512
H      -0.821706   -3.951999   -0.201288
H       1.983018   -0.607025    0.166987
