17

C      -0.013711    1.499344   -0.018073
C      -0.001077   -0.016972    0.002390
O       0.694824   -0.463337   -1.168502
C       0.805104   -1.793854   -1.315226
N       0.315234   -2.709902   -0.492561
N       0.650649   -3.854897   -1.092360
N       1.349119   -3.744326   -2.229482
C       1.453816   -2.432418   -2.401532
N       2.147265   -1.833263   -3.446263
H       1.005338    1.896186   -0.013445
H      -0.524913    1.871980   -0.910316
H      -0.537304    1.879275    0.864058
H       0.507312   -0.406596    0.892720
H      -1.016288   -0.432335   -0.001489
H       0.508703   -4.743372   -0.646524
H       2.239473   -2.441578   -4.248819
H       1.757840   -0.937860   -3.708755
