23

C       0.077493    1.511777    0.249353
C      -0.033084    0.014368   -0.052322
C       0.665174   -0.448091   -1.352069
C       0.091370    0.255190   -2.584990
O       2.051763   -0.076580   -1.321655
C       0.539979   -1.984946   -1.456755
C       1.292170   -2.605630   -2.652003
C       1.318410   -4.061807   -2.598754
C       1.325746   -5.262218   -2.531308
H       1.119001    1.840017    0.193045
H      -0.502418    2.115462   -0.454805
H      -0.298026    1.730103    1.253559
H       0.408392   -0.552962    0.779686
H      -1.087375   -0.286666   -0.090781
H       0.196720    1.338064   -2.492487
H       0.624610   -0.048130   -3.488777
H      -0.969158    0.016241   -2.708790
H       2.442293   -0.464383   -0.530209
H       0.934933   -2.427894   -0.533269
H      -0.518014   -2.266853   -1.501038
H       0.830491   -2.291066   -3.595203
H       2.314369   -2.210428   -2.665199
H       1.340051   -6.322680   -2.485787
