13

N       0.741452   -0.028136    0.764112
C      -0.151465    0.097305   -0.226813
O      -0.090268    0.860026   -1.170957
C      -1.421746   -0.831274   -0.132926
O      -2.162654   -0.676606   -1.297104
C      -0.994107   -2.314621    0.005493
O      -0.288263   -2.724664    0.885740
C      -2.193387   -0.456657    1.070306
N      -2.799680   -0.177378    2.013502
H       1.586231    0.520185    0.728037
H       0.670286   -0.797033    1.415118
H      -1.743849    0.078818   -1.755181
H      -1.399910   -2.945126   -0.808885
