18

C       0.206926    1.558731    0.143941
C       0.035089    0.086167   -0.017424
C      -0.152608   -0.731485   -1.114646
N      -0.251559   -2.024389   -0.676661
N      -0.137499   -2.059421    0.617975
N       0.035798   -0.789475    1.023951
C      -0.245275   -0.383039   -2.543796
C       0.315413   -1.326181   -3.589918
C      -1.170763   -1.165716   -3.454448
H       1.162691    1.808798    0.618672
H       0.185491    2.049090   -0.831428
H      -0.591045    1.999065    0.752931
H       0.146125   -0.598945    2.007294
H      -0.150037    0.677346   -2.753596
H       0.811052   -0.890508   -4.450509
H       0.753827   -2.246389   -3.221685
H      -1.721078   -1.979220   -2.996242
H      -1.708496   -0.618372   -4.220840
