18

N       0.302151    1.339657    0.321775
C       0.050358   -0.073990    0.120443
C      -1.452997   -0.482137    0.060288
C      -2.483343    0.620324   -0.244702
C      -2.230932    0.324527   -1.746462
N      -1.343700   -0.846687   -1.412294
C       0.125239   -0.534163   -1.377706
C       0.642966    0.423723   -2.344247
N       1.073320    1.180835   -3.105417
H       0.244438    1.573637    1.308278
H       1.238372    1.582876    0.011541
H       0.639253   -0.739382    0.768155
H      -1.745081   -1.282660    0.745001
H      -3.491579    0.378829    0.096981
H      -2.208682    1.620025    0.092166
H      -3.103552    0.001704   -2.319989
H      -1.726928    1.121941   -2.299212
H       0.694480   -1.462791   -1.492163
