20

C       0.181710    1.559029   -0.045733
C       0.026215    0.028384   -0.010563
C       0.544992   -0.616221   -1.303255
C       0.668218   -0.535589    1.230004
N       2.121761   -0.734786    1.430615
C       1.181729   -1.875726    1.598902
C       0.522218   -1.743719    3.017416
O       1.034712   -0.582732    3.669468
C       0.027587   -0.412748    2.674248
H       1.236811    1.839810   -0.130613
H      -0.354382    1.986104   -0.899186
H      -0.210742    2.020701    0.865560
H      -1.047880   -0.198409    0.063229
H       1.599932   -0.376527   -1.479417
H       0.440018   -1.705391   -1.280219
H      -0.016542   -0.243185   -2.165009
H       2.533035   -0.845606    0.502985
H       1.270810   -2.782375    1.014887
H       0.105627   -2.535540    3.627687
H      -0.880387    0.114767    2.943531
