13

O       0.047422    1.444176   -0.128696
C       0.055321    0.066714   -0.005300
C       0.282301   -0.623511    1.399437
O       1.200723   -0.675866    2.155265
C      -1.074643   -1.303836    1.321766
N      -2.024211   -0.163044    1.141096
C      -1.305828   -0.682897   -0.038438
C      -1.973132   -1.257561   -1.156710
N      -2.507629   -1.710735   -2.077768
H      -0.610753    1.783164    0.492364
H       0.768694   -0.341042   -0.728175
H      -1.410464   -2.260779    1.699227
H      -2.969424   -0.546344    1.150239
