18

C      -0.037485    1.515648   -0.010513
C       0.044406    0.008377   -0.014555
C      -0.792576   -0.782935    0.944892
C       0.729177   -0.781506    1.125837
C       1.437827   -1.919120    0.458615
C       1.255903   -1.897114   -0.861689
C       0.451308   -0.699551   -1.313398
C       1.295953   -0.141795    2.275974
N       1.752226    0.377992    3.204319
H       0.888512    1.961148   -0.388770
H      -0.860092    1.857502   -0.648772
H      -0.208944    1.905753    0.996487
H      -1.369453   -0.219755    1.670993
H      -1.233326   -1.724658    0.634897
H       1.989264   -2.661453    1.021826
H       1.621187   -2.647699   -1.552602
H      -0.425184   -0.987579   -1.907551
H       1.050814   -0.035547   -1.950791
