19

C       0.255085    1.521886   -0.231047
C       0.045681    0.054001    0.077376
O       0.692079   -0.811331   -0.890975
C       1.360390   -1.568615    0.136201
C       2.865532   -1.341015    0.150830
O       3.045524   -0.049967    0.734712
C       2.076595    0.067808    1.765358
C       0.813588   -0.637186    1.243425
O       0.040318   -1.257560    2.237604
H       1.320421    1.756461   -0.296523
H      -0.209826    1.768850   -1.190585
H      -0.208120    2.150939    0.537798
H      -1.024717   -0.185597    0.145329
H       1.051521   -2.617718    0.160067
H       3.358562   -2.117349    0.758435
H       3.306895   -1.327150   -0.848210
H       2.396259   -0.450526    2.684420
H       1.949752    1.132181    1.983527
H      -0.280040   -0.581582    2.844819
