17

C      -0.161670    1.578213   -0.016046
C      -0.041513    0.064189   -0.013299
O      -1.290750   -0.565999   -0.252731
C       1.187889   -0.592574   -0.685382
C       2.091846   -0.355281    0.569895
O       2.536926   -1.737913    0.650601
C       1.137401   -1.834799    0.253691
C       0.678228   -0.623343    1.162080
O       0.354164   -0.595807    2.493522
H       0.796112    2.059704    0.201801
H      -0.498618    1.942999   -0.994499
H      -0.888899    1.903160    0.734363
H      -1.686391   -0.175492   -1.038823
H       1.513929   -0.582331   -1.722635
H       2.802812    0.441423    0.781952
H       0.697450   -2.816367    0.095285
H      -0.556677   -0.900585    2.583151
