21

C      -0.151644    1.536580   -0.140853
C       0.103721    0.034301   -0.154110
C       1.341274   -0.535978   -0.931800
C       1.800496   -1.244913    0.346851
C       2.032530   -0.231901    1.432070
C       0.618032   -0.659076    1.126151
C      -0.281878   -1.299378    2.155789
C      -0.933953   -0.256788    3.043473
O      -2.121535   -0.101242    3.167854
H       0.726462    2.095906    0.198293
H      -0.405409    1.897465   -1.143651
H      -0.986490    1.788222    0.522581
H      -0.800877   -0.480655   -0.495264
H       1.056501   -1.213816   -1.739086
H       2.042158    0.205640   -1.330886
H       2.213302   -2.245368    0.402795
H       2.439788   -0.626577    2.358163
H       2.390047    0.765221    1.186544
H      -1.070842   -1.898519    1.689311
H       0.315587   -1.958521    2.801758
H      -0.209368    0.395845    3.583574
