19

C       0.500226    1.023659    0.607175
C      -0.194150   -0.218449    0.054594
O      -1.613242   -0.089203   -0.039433
C      -2.282704   -0.206777    1.186702
C      -3.734753   -0.598377    1.087556
C      -2.711880   -1.603198    1.568899
O      -2.330968   -2.671327    0.756129
C       0.281865   -0.552127   -1.355959
O       1.408401   -0.395622   -1.743600
H       1.579065    0.915405    0.473353
H       0.169428    1.912423    0.062469
H       0.291216    1.163130    1.670413
H       0.051701   -1.095322    0.677240
H      -1.979613    0.507342    1.949026
H      -4.436417   -0.164853    1.791520
H      -4.123552   -0.743165    0.084624
H      -2.710497   -1.896408    2.613027
H      -2.162237   -2.305605   -0.120982
H      -0.516195   -0.976936   -2.005373
