19

C       0.259012    1.578399    0.210488
C       0.004866    0.086871    0.103096
C       0.628569   -0.782893   -1.061551
C       2.047814   -1.526529   -0.840436
C       3.050169   -1.147369    0.262176
C       2.079334   -0.587804    1.304456
C       0.816346   -0.909192    0.959859
C       0.797355   -1.958927   -0.178395
O       0.103410   -3.151203   -0.212835
H       1.326983    1.808043    0.145782
H      -0.255239    2.110392   -0.597258
H      -0.117058    1.976839    1.159219
H      -1.073127   -0.116844    0.088551
H       0.244703   -0.791755   -2.079618
H       2.380002   -2.020795   -1.751594
H       3.671448   -2.012714    0.538168
H       3.743732   -0.341460   -0.009151
H       2.330971    0.329113    1.830061
H       0.555921   -3.778357    0.362453
