22

C      -0.230814    1.399396    0.156914
O       0.106806    0.039463   -0.079651
C       0.610016   -0.626112    0.981257
N       0.940435   -1.836007    0.879198
C       1.464853   -2.491937    2.023091
C       1.139999   -3.967453    2.214052
C       0.195360   -4.693943    1.281789
C       2.537043   -3.552479    1.811529
C       3.115234   -3.826622    0.440474
H       0.646042    1.986305    0.457620
H      -0.613888    1.790224   -0.786488
H      -1.008085    1.494177    0.925449
H       0.696096   -0.025847    1.900400
H       1.547517   -1.889122    2.931478
H       1.038872   -4.264025    3.255615
H       0.229322   -4.284249    0.271509
H       0.437033   -5.761642    1.232124
H      -0.837816   -4.604252    1.635427
H       3.271480   -3.600889    2.612336
H       2.386340   -3.643443   -0.349985
H       3.974824   -3.174770    0.248776
H       3.461276   -4.863319    0.360682
