14

C      -0.004506    1.421123   -0.022955
N      -0.014825   -0.023916    0.034499
N       0.054151   -0.762228   -1.106798
C       0.094849   -2.055031   -0.754898
C       0.058944   -2.133076    0.643111
C      -0.005414   -0.843580    1.110041
N      -0.054077   -0.811212    2.487658
C      -0.017484   -2.077356    2.782276
O       0.050598   -2.959939    1.736094
H       1.014433    1.806995   -0.131612
H      -0.601331    1.743401   -0.877289
H      -0.438590    1.811650    0.899266
H       0.140639   -2.818104   -1.514758
H      -0.033953   -2.519275    3.766609
