19

C      -0.230387    1.521430   -0.041564
C       0.043957    0.035741    0.040187
C      -1.151739   -0.955811    0.211601
C      -0.336264   -1.774512    1.253929
C       0.810651   -0.734890    1.201211
C       1.953708   -1.091880    0.209151
O       2.451536   -2.399936    0.147428
C       1.060142   -0.591234   -0.929253
O       1.084234   -0.786230   -2.113990
H       0.692319    2.109936    0.001649
H      -0.736801    1.764901   -0.982210
H      -0.875919    1.844779    0.782017
H      -2.016035   -0.452554    0.653868
H      -1.479074   -1.469572   -0.695660
H      -0.818325   -1.863722    2.228673
H      -0.025684   -2.771137    0.931858
H       1.111752   -0.257762    2.132944
H       2.770525   -0.361899    0.351847
H       2.436869   -2.664740   -0.780322
