20

C      -0.083270    1.514468   -0.073875
C      -0.033157    0.016231    0.106284
N       1.270448   -0.645013   -0.111717
C       0.663618   -0.647570    1.235118
C       1.408561    0.058482    2.371267
C       1.910791   -1.084420    3.294055
C       0.935934   -2.220321    3.045080
O      -0.440463   -1.815018    3.091433
C       0.190246   -1.952092    1.808458
H       0.828842    1.984752    0.300363
H      -0.183837    1.772110   -1.133597
H      -0.939188    1.941006    0.460133
H      -0.910901   -0.509165   -0.271315
H       1.142290   -1.547727   -0.565593
H       2.224206    0.673430    1.989013
H       0.718109    0.704298    2.919980
H       2.915107   -1.414654    3.003591
H       1.951699   -0.788135    4.346322
H       1.137300   -3.225743    3.406355
H      -0.214638   -2.727760    1.160475
