10

F       0.102180    0.107722   -0.120104
C      -0.068924    1.384084    0.034820
N      -1.199330    1.920169   -0.147396
C      -1.283409    3.292681    0.042755
O      -2.258307    3.953452   -0.083832
O      -0.092662    3.955400    0.422872
C       1.083983    3.342012    0.604066
N       2.114955    3.956006    0.939113
O       1.080218    1.949870    0.390094
H       2.913278    3.332870    1.030400
