19

C      -0.030040    1.494335   -0.170781
C      -0.046206   -0.023207   -0.002680
O       0.680520   -0.455719    1.144167
C      -1.453941   -0.563766    0.048733
O      -2.384863   -0.200639   -1.022821
C      -3.158427   -1.053608   -0.129085
C      -1.985452   -2.030799    0.181590
C      -2.195183   -1.901049    1.705120
C      -2.538456   -0.486572    1.184800
H       0.999542    1.854205   -0.243902
H      -0.579628    1.786194   -1.069287
H      -0.510255    1.982647    0.686180
H       0.463871   -0.487758   -0.855196
H       0.364849    0.057329    1.896591
H      -4.199243   -1.262217   -0.374696
H      -1.674629   -2.887121   -0.416562
H      -3.026209   -2.472168    2.128672
H      -1.302268   -1.995725    2.324664
H      -2.865612    0.404368    1.722395
