17

C      -0.166453    1.470491    0.051831
C       0.146700    0.012405   -0.003612
O      -0.685770   -0.898930    0.729914
C       0.733928   -0.926952    0.968223
C       1.303000   -1.830343   -0.134967
O       0.849430   -3.143326   -0.169516
C       0.709706   -0.788933   -1.203124
C      -0.235103   -1.285099   -2.177928
C      -1.031424   -1.719631   -2.967525
H       0.688207    2.063198   -0.289238
H      -1.018949    1.703399   -0.595145
H      -0.418433    1.768226    1.072845
H       1.066037   -0.783826    1.990596
H       2.394146   -1.854884   -0.170613
H      -0.113879   -3.101047   -0.102945
H       1.530507   -0.249212   -1.686943
H      -1.730883   -2.097319   -3.671601
