18

C       0.041108    1.518772    0.088695
C      -0.010118    0.008485   -0.071921
C       0.773411   -0.512423   -1.275188
N       0.861955   -1.969203   -1.300388
C       1.456838   -2.456953   -0.056774
C       0.884919   -1.860028    1.216007
N       0.871198   -2.519051    2.296456
O       0.486740   -0.553970    1.165225
H       1.076726    1.859218    0.184883
H      -0.408562    2.009632   -0.779812
H      -0.505831    1.827215    0.983209
H      -1.057674   -0.317038   -0.173757
H       0.301185   -0.157397   -2.197369
H       1.794342   -0.107590   -1.251161
H      -0.069644   -2.361992   -1.406617
H       1.375887   -3.542783    0.006344
H       2.528729   -2.213655   -0.078261
H       0.497252   -1.940507    3.052920
