20

C       0.139685    1.536081    0.045705
C      -0.017329    0.019718   -0.094410
N       0.699789   -0.523693   -1.231563
N       0.023212   -0.806313   -2.382136
C       0.964176   -1.185859   -3.234185
C       2.253952   -1.163296   -2.662107
C       2.040377   -0.724265   -1.364790
N       2.927607   -0.436579   -0.333491
C       4.314696   -0.829691   -0.531508
H       1.189865    1.807382    0.183481
H      -0.232930    2.038139   -0.851146
H      -0.428587    1.897274    0.908603
H       0.316797   -0.487722    0.820057
H      -1.063168   -0.252386   -0.248937
H       0.687279   -1.478099   -4.237178
H       3.192192   -1.434038   -3.115873
H       2.575582   -0.697405    0.578205
H       4.444833   -1.906572   -0.718869
H       4.726881   -0.285149   -1.386326
H       4.891270   -0.553823    0.354295
