20

C       0.354475    1.522163    0.112113
O       1.181361    0.415297   -0.251053
C      -0.202785    0.167143    0.014836
C      -0.530587   -0.670965    1.222583
C      -2.012795   -0.566651    1.661114
C      -2.358269   -1.925884    2.336827
C      -1.089974   -2.804852    2.193816
C      -0.321613   -2.183157    1.018645
H       0.553118    1.950098    1.094358
H       0.167477    2.247680   -0.678697
H      -0.783408   -0.073459   -0.879914
H       0.118096   -0.341744    2.044500
H      -2.180622    0.288134    2.321869
H      -2.647114   -0.408303    0.781007
H      -2.645712   -1.800963    3.384337
H      -3.210228   -2.394020    1.834493
H      -0.480812   -2.738101    3.102947
H      -1.323061   -3.862620    2.043474
H      -0.772982   -2.490382    0.065102
H       0.734596   -2.462853    0.985211
