13

N      -0.015339    1.359076   -0.039631
C       0.046604   -0.012377   -0.075269
O       1.104595   -0.611323   -0.165847
C      -1.253674   -0.713445   -0.031338
C      -1.381596   -2.090126    0.040094
N      -2.702643   -2.348711    0.057855
N      -3.470011   -1.237551   -0.002744
C      -2.591904   -0.244598   -0.056999
H       0.865258    1.836520    0.071728
H      -0.836344    1.827394    0.304792
H      -0.627347   -2.858765    0.077328
H      -3.154399   -3.246706    0.106166
H      -2.953127    0.771534   -0.128427
