14

O      -0.019286    0.314814    0.968561
C      -0.061680    1.361230    0.363664
N      -0.852426    1.739814   -0.705321
N      -0.598935    3.006656   -1.177458
C       0.331098    3.453144   -0.389111
N       0.685934    2.531401    0.564324
C       0.930865    4.795489   -0.470068
C       1.103700    5.637743    0.727973
O       2.207424    4.927807    0.164504
H      -1.517211    1.150153   -1.174192
H       1.471069    2.601859    1.189238
H       0.824861    5.276302   -1.439662
H       1.134097    6.719494    0.612702
H       0.754322    5.275122    1.692804
