22

C      -0.038747    1.433485   -0.828829
C       0.012406   -0.093412   -0.840748
C      -1.402880   -0.629164   -1.040126
C       1.204918   -0.770422   -1.536872
C       2.120334   -0.325994   -0.359017
C       2.686841   -1.712911   -0.111759
C       1.212557   -1.932201   -0.473580
C       0.532624   -3.272797   -0.403967
N       0.786568   -0.672738    0.367192
H       0.934156    1.896116   -0.653854
H      -0.419343    1.807522   -1.785577
H      -0.719378    1.779587   -0.043062
H      -1.897177   -0.088977   -1.854787
H      -1.440296   -1.689031   -1.286440
H      -1.993411   -0.468750   -0.131109
H       1.463985   -0.833763   -2.601628
H       2.596651    0.641553   -0.209820
H       3.429238   -2.080997   -0.825484
H       2.964582   -1.947274    0.920398
H       0.665648   -3.691707    0.599481
H      -0.536427   -3.248138   -0.615556
H       1.004009   -3.959256   -1.116574
