20

C      -0.125850    1.453561    0.022905
C       0.060928   -0.030280   -0.234620
C       0.892440   -0.579847   -1.412888
C       2.296729    0.044697   -1.200356
C       2.326386   -0.745127    0.106710
N       0.945959   -0.790961    0.721636
C       1.322150   -1.714235   -0.394030
C       1.136394   -3.189904   -0.300800
O      -0.233292   -3.544973   -0.168684
H       0.822143    1.996349    0.049828
H      -0.755174    1.900936   -0.754476
H      -0.621451    1.604795    0.987364
H      -0.909785   -0.536622   -0.208333
H       0.477626   -0.702585   -2.411597
H       3.022853   -0.368778   -1.905089
H       2.389268    1.134300   -1.179038
H       3.149566   -0.904116    0.791386
H       1.493259   -3.686947   -1.209068
H       1.734887   -3.568292    0.542818
H      -0.547996   -3.107124    0.630621
