17

C       0.034958    1.564973   -0.184277
N       1.551352    1.516697    0.112718
C       1.193074    0.276568    0.938090
C       1.225952   -1.281096    1.176634
C      -0.376688   -1.121670    1.103663
C      -0.026129    0.036206    0.107142
N       0.326784   -0.629812   -1.174013
C       1.139059   -1.594877   -1.084906
O       1.692620   -2.039910    0.068766
H      -0.450052    2.198673    0.561088
H      -0.223443    1.876974   -1.198352
H       1.996336    1.219331   -0.754750
H       0.917962    0.683008    1.916427
H       1.699182   -1.699736    2.064406
H      -0.930122   -1.983252    0.722529
H      -0.778470   -0.790647    2.061159
H       1.466646   -2.175439   -1.943261
