18

C       0.008492    1.631768   -0.036774
C       0.034677    0.111756    0.005698
C       1.023022   -0.626858   -0.948391
C       1.651729   -1.215214    0.331718
O       2.515048   -2.003945    0.611164
N       0.790520   -0.487733    1.125599
C       0.537827   -0.567916    2.539372
C       0.872008    0.724981    3.274963
O       0.218168    1.175817    4.176760
H       1.023714    2.040270   -0.010195
H      -0.479243    1.976281   -0.954291
H      -0.550317    2.044367    0.809907
H      -0.985232   -0.289713   -0.050792
H       0.578796   -1.371703   -1.610633
H       1.687834    0.023693   -1.520498
H      -0.498380   -0.847500    2.764076
H       1.199748   -1.354741    2.928115
H       1.794659    1.225505    2.902931
