18

C       0.279912    1.253404    0.196874
C       0.029906   -0.255035    0.320627
O       0.288908   -0.729183    1.642060
C      -1.322756   -0.623326   -0.115823
C      -2.448870   -0.928049   -0.421711
C      -3.796324   -1.361808   -0.758243
C      -4.289697   -2.659199   -0.076384
N      -3.390663   -3.278269    0.727061
O      -5.417001   -3.061645   -0.276875
H       1.293250    1.483585    0.535770
H       0.165144    1.583417   -0.839545
H      -0.434252    1.812154    0.810787
H       0.760514   -0.784798   -0.302336
H      -0.357565   -0.315772    2.225831
H      -4.534163   -0.590053   -0.512408
H      -3.890593   -1.531646   -1.837128
H      -2.461318   -2.913385    0.853587
H      -3.662443   -4.135352    1.178599
