19

C      -0.050655    1.516334   -0.053663
C      -0.000468    0.001009    0.031729
C      -1.247273   -0.668126   -0.520214
C       1.336270   -0.692510   -0.202358
C       0.718492   -0.670972    1.180376
C       1.367231    0.101483    2.308826
O       0.109469   -1.861310    1.626089
H       0.878931    1.990883    0.269651
H      -0.232082    1.828035   -1.088948
H      -0.865150    1.921735    0.558317
H      -1.370212   -0.425731   -1.582296
H      -1.203803   -1.751805   -0.410575
H      -2.143019   -0.316491    0.005264
H       1.322604   -1.638966   -0.733233
H       2.212680   -0.078985   -0.389486
H       1.847366    1.019910    1.965048
H       0.628288    0.359608    3.074461
H       2.142326   -0.511639    2.786264
H       0.811247   -2.460263    1.903996
