14

O       0.192892    1.462433    0.099365
C       0.051928    0.078566    0.033734
C      -0.115448   -0.677444    1.366914
C      -1.538437   -0.098983    1.532432
C      -1.376265   -0.596263    0.067967
O      -0.681056   -1.803893    0.588958
C      -2.346635   -0.722258   -0.973231
C      -3.155067   -0.783059   -1.861590
H       0.169578    1.814664   -0.796154
H       0.729014   -0.410810   -0.674067
H       0.631464   -0.916117    2.121680
H      -2.215773   -0.699187    2.139956
H      -1.638079    0.975534    1.684983
H      -3.872951   -0.848288   -2.641837
