21

C      -0.056216    1.683686    0.011574
C       0.000252    0.146395    0.023960
C       0.728895   -0.385469   -1.230957
C      -0.034311   -0.086577   -2.500267
O       0.389101    0.537971   -3.438280
C       0.644767   -0.436876    1.296721
O       2.014103   -0.048524    1.455570
C      -0.108907   -0.146389    2.598053
O       0.529361   -0.776054    3.688458
H       0.948696    2.121281    0.047540
H      -0.517867    2.049232   -0.910187
H      -0.633479    2.081348    0.850160
H      -1.031678   -0.233866    0.002438
H       1.736897    0.029535   -1.307384
H       0.815702   -1.478815   -1.155261
H      -1.072315   -0.499582   -2.512284
H       0.692001   -1.527415    1.191144
H       2.044767    0.913163    1.521816
H      -0.182707    0.943759    2.757237
H      -1.130719   -0.538564    2.543101
H       1.475263   -0.641072    3.545670
