20

C      -0.166839    1.527373   -0.067418
C      -0.258222    0.013056   -0.268576
C       0.968746   -0.566475   -0.996429
C       0.892016   -2.049157   -1.201590
N       1.678472   -2.865866   -0.509451
N       1.326158   -4.111506   -0.931595
C       0.349492   -4.096472   -1.871981
N      -0.188263   -5.282015   -2.381765
C       0.036340   -2.767089   -2.078464
H       0.714213    1.794926    0.526593
H      -0.087853    2.051534   -1.026798
H      -1.048796    1.915280    0.452064
H      -0.361866   -0.487638    0.701460
H      -1.164913   -0.231746   -0.835824
H       1.078813   -0.062341   -1.966019
H       1.874313   -0.349107   -0.420141
H       1.746703   -4.915697   -0.499285
H       0.515151   -5.926709   -2.723924
H      -0.852847   -5.099020   -3.121566
H      -0.687536   -2.373878   -2.774510
