16

C      -0.041116    1.563579   -0.153775
O       1.104358    2.322997    0.246869
C       1.904292    1.973665    1.279035
N       2.122899    0.874798    1.856427
C       1.556836   -0.387064    1.502754
C       1.204636   -0.852756    0.047123
O       0.370106   -1.907902    0.657824
C       0.028129   -0.673657    1.397856
C      -0.050597    0.059563    0.033782
H      -0.916896    1.990732    0.354773
H      -0.148120    1.784454   -1.219909
H       2.459180    2.858628    1.591320
H       2.062635   -1.183179    2.051091
H       1.868636   -1.142894   -0.768062
H      -0.715619   -0.747715    2.192572
H      -0.849058   -0.356032   -0.588838
