20

C      -0.001521    1.478161   -0.229987
C       0.048860    0.012667    0.132325
N       0.142028   -0.496460    1.293132
O      -0.021959   -0.716709   -0.999321
C       0.001727   -2.179222   -1.002199
C       1.332454   -2.710347   -0.442666
C      -1.215533   -2.751982   -0.256390
C      -0.097027   -2.517039   -2.428505
C      -0.176083   -2.840808   -3.582308
H       0.052969    2.103900    0.662349
H       0.828517    1.728481   -0.897266
H      -0.926899    1.699667   -0.769885
H       0.181432    0.237798    1.996037
H       1.408357   -2.486151    0.620524
H       1.378632   -3.791966   -0.594875
H       2.170216   -2.253186   -0.975060
H      -2.136210   -2.323539   -0.660216
H      -1.248188   -3.834886   -0.402854
H      -1.143281   -2.527864    0.807071
H      -0.246308   -3.118377   -4.605017
