23

C       0.288378    1.355655   -0.194422
O       0.067526   -0.019029    0.000738
C       0.856817   -0.560809    1.040112
C       0.531544   -2.054901    1.149302
C       0.903967   -2.787693   -0.122896
C       1.974387   -3.563416    0.038384
C       2.500166   -3.516005    1.452080
C       1.345506   -2.833523    2.234111
C       1.797368   -2.043044    3.462929
H       1.333624    1.568140   -0.471159
H      -0.364535    1.682076   -1.007931
H       0.050087    1.941354    0.708298
H       1.928525   -0.411511    0.822855
H       0.638271   -0.042626    1.988839
H      -0.544522   -2.119832    1.353430
H       0.372781   -2.625512   -1.052823
H       2.449637   -4.144580   -0.744760
H       2.742224   -4.505032    1.858858
H       3.430269   -2.929831    1.505693
H       0.684300   -3.637843    2.578158
H       2.483954   -1.232100    3.196938
H       0.948458   -1.603098    3.997159
H       2.323804   -2.697452    4.166037
