23

C      -0.254680    1.459348   -0.048254
C       0.014765   -0.042335   -0.084051
C       1.286207   -0.447980   -0.887687
C       2.059509   -0.608199    0.454516
C       0.692839   -0.604154    1.201080
C       2.959644   -1.802637    0.620905
O       2.251075   -2.984448    0.332684
C       4.415721   -1.702930    0.247464
C       4.001699   -1.811426    1.708926
H       0.640163    2.019718    0.248195
H      -0.564750    1.830020   -1.031762
H      -1.047959    1.702742    0.667492
H      -0.897279   -0.567845   -0.382439
H       1.170140   -1.409929   -1.391078
H       1.674281    0.283740   -1.602371
H       2.637702    0.291028    0.686022
H       0.620852    0.006606    2.105826
H       0.368205   -1.620865    1.431558
H       2.841797   -3.736023    0.435236
H       4.880827   -2.572448   -0.207767
H       4.802573   -0.756227   -0.115112
H       4.105752   -0.938959    2.345596
H       4.193733   -2.752574    2.215777
