14

O       0.050895    1.401057   -0.105932
C      -0.003728   -0.002575   -0.037113
C       0.607949   -0.525915    1.272600
N       1.752765   -0.160557    1.673666
N      -0.348046   -1.357143    1.851880
C      -1.536171   -1.301531    1.137606
C      -1.425394   -0.533378    0.035386
C      -2.424093   -0.307723   -0.932919
N      -3.236093   -0.116000   -1.738282
H       0.927303    1.649665    0.219536
H       0.527345   -0.460957   -0.887565
H       2.004395   -0.544783    2.584820
H      -0.275253   -1.727514    2.785591
H      -2.396054   -1.860753    1.477976
