19

C      -0.425726    1.501573    0.107792
O       0.896708    1.039504   -0.184095
C      -0.120935    0.067205   -0.001726
C      -0.091047   -0.878124    1.207276
C      -0.598204   -2.241205    0.665457
C      -1.363722   -1.896501   -0.633137
C      -0.532631   -0.764044   -1.199591
C      -0.514755   -0.283532   -2.578687
O       0.523427   -1.141861   -2.096463
H      -0.559894    1.941947    1.095696
H      -0.931205    2.020068   -0.705730
H       0.922335   -0.940516    1.611714
H      -0.737854   -0.502215    2.005956
H       0.251863   -2.883550    0.416601
H      -1.213608   -2.778387    1.390581
H      -1.444643   -2.732456   -1.330888
H      -2.375424   -1.539882   -0.401674
H      -1.187733   -0.723013   -3.314564
H      -0.200980    0.739138   -2.785223
