20

O      -0.028756    1.416842   -0.007284
C       0.019453    0.001156    0.094950
C      -1.389576   -0.535191   -0.125778
C      -1.469589   -2.053437   -0.048460
C      -1.272409   -2.758223    1.327478
C      -2.383840   -3.748891    0.933442
O      -3.244550   -4.097266    1.992827
C      -2.866901   -2.730765   -0.136504
H       0.853899    1.760472    0.157907
H       0.702224   -0.429359   -0.656794
H       0.387345   -0.314072    1.084833
H      -2.054808   -0.087643    0.623200
H      -1.742485   -0.189053   -1.105553
H      -0.796055   -2.497519   -0.791619
H      -0.289331   -3.159975    1.583018
H      -1.625876   -2.123952    2.147108
H      -1.960429   -4.644547    0.455224
H      -3.902622   -4.714821    1.658153
H      -3.642551   -2.087463    0.291656
H      -3.203079   -3.107635   -1.106151
