19

O       0.018443    1.419200   -0.022807
C      -0.008732    0.003846   -0.024949
C      -1.422310   -0.478342   -0.027756
C      -2.527584    0.266882   -0.028165
C      -3.781934   -0.568075    0.028133
C      -3.260327   -1.996714   -0.323359
C      -1.742378   -1.956231    0.031332
C      -3.997493   -3.084411    0.301455
C      -4.603921   -3.978539    0.829798
H       0.937297    1.700713   -0.036375
H       0.515618   -0.407339   -0.906613
H       0.511793   -0.410871    0.857575
H      -2.533545    1.349270   -0.023213
H      -4.229150   -0.549692    1.030916
H      -4.561599   -0.240660   -0.667623
H      -3.333941   -2.107331   -1.412184
H      -1.147534   -2.564266   -0.659804
H      -1.562208   -2.358654    1.037356
H      -5.141735   -4.769059    1.291138
