19

O      -0.140347    0.313994    1.744584
C      -0.051822    1.244760    0.971609
C       1.144306    2.155561    1.064736
C       1.881212    2.569222   -0.148227
O       1.033328    3.479589    0.532428
C      -1.082328    1.504687   -0.101937
C      -1.228382    0.396021   -1.201435
C      -2.767863    0.540648   -1.096677
C      -2.568977    1.234341    0.275421
H       1.691257    2.067844    2.001634
H       2.949383    2.762422   -0.066977
H       1.534245    2.244331   -1.127763
H      -0.943026    2.493604   -0.541170
H      -0.755716    0.587774   -2.167603
H      -0.885199   -0.567438   -0.815811
H      -3.161663    1.229834   -1.848986
H      -3.361944   -0.375545   -1.119581
H      -2.616024    0.522820    1.103203
H      -3.185721    2.105033    0.507270
