23

C       0.021645    1.554552   -0.068642
C       0.050469    0.017057    0.014278
C       0.691215   -0.582835   -1.252828
C       0.731354   -0.465236    1.269458
C       0.207964   -1.284509    2.190030
C       1.179993   -1.645147    3.260180
C       2.401817   -2.409690    2.785632
C       2.457098   -0.907647    2.890042
C       2.159690   -0.079078    1.641807
H       1.033397    1.967725   -0.145726
H      -0.536371    1.883339   -0.951593
H      -0.453073    1.990370    0.815815
H      -0.988355   -0.335659    0.056310
H       1.729432   -0.253110   -1.368541
H       0.687710   -1.676355   -1.216296
H       0.143729   -0.268898   -2.148028
H      -0.799452   -1.686615    2.152835
H       0.849643   -1.765294    4.286305
H       2.963585   -2.971496    3.525298
H       2.357474   -2.870801    1.803572
H       3.093127   -0.480802    3.656491
H       2.870956   -0.279640    0.830062
H       2.234790    0.996158    1.853319
