19

C       0.359130    0.989369    0.586650
N      -0.126098    0.163783   -0.527567
C      -1.346153   -0.500677   -0.305211
C      -2.642314   -0.211859   -0.677090
C      -3.454419   -1.283496   -0.205906
O      -4.799949   -1.313702   -0.396440
C      -5.456294   -2.446522    0.129964
C      -2.646419   -2.188326    0.448441
N      -1.356099   -1.684463    0.382619
H       1.316633    1.439075    0.307997
H      -0.338586    1.789099    0.878851
H       0.527938    0.356131    1.462043
H      -0.193325    0.721710   -1.369522
H      -2.986378    0.666375   -1.199989
H      -5.326378   -2.514250    1.219629
H      -6.517448   -2.334705   -0.100354
H      -5.081040   -3.374130   -0.325483
H      -2.862731   -3.111877    0.955104
H      -0.521439   -2.184587    0.632798
