19

O      -0.040480    1.422604    0.012700
C       0.003717    0.006694    0.051303
C       0.445464   -0.596681    1.414971
C      -0.750526   -0.312973    2.344338
C      -1.349563   -1.352202    1.368765
O      -0.018563   -1.974591    1.280162
C      -1.414336   -0.597290    0.048115
C      -2.620993    0.130940   -0.460856
C      -2.114734   -1.101408   -1.176545
H       0.860202    1.747369   -0.084774
H       0.620069   -0.393533   -0.763908
H       1.489497   -0.498350    1.716206
H      -0.595840   -0.723378    3.342539
H      -1.171305    0.693562    2.368094
H      -2.155598   -2.039587    1.626802
H      -3.544774    0.052542    0.104104
H      -2.454015    1.099217   -0.918526
H      -1.622443   -0.969117   -2.134934
H      -2.692157   -2.017306   -1.096498
