21

C       0.010333    1.577621    0.133448
C      -0.107511    0.069248   -0.111654
C       0.683701   -0.444957   -1.324380
C       0.255964    0.196618   -2.637763
C       2.217292   -0.522402   -1.046831
N       2.056643   -1.938306   -0.644092
C       0.765622   -2.020327   -1.353344
C      -0.275564   -2.805443   -0.688389
N      -1.114393   -3.419094   -0.182221
H       1.054941    1.892484    0.233259
H      -0.438995    2.162260   -0.674681
H      -0.503426    1.851446    1.059508
H       0.237206   -0.471040    0.776852
H      -1.163329   -0.198280   -0.241706
H       0.454833    1.272554   -2.635955
H       0.795059   -0.235503   -3.486850
H      -0.816977    0.056995   -2.812129
H       2.811095   -0.371734   -1.959152
H       2.615403    0.121130   -0.256137
H       2.767936   -2.584470   -0.967157
H       0.839311   -2.376865   -2.391265
