19

C      -0.152815    1.534052   -0.046117
C      -0.004286    0.017473    0.022614
O       0.511778   -0.506634   -1.209682
C       1.687725   -1.266571   -0.994113
O       2.841594   -0.496877   -1.251760
C       3.143827    0.265114   -0.080770
C       2.411968   -0.415859    1.071723
C       0.894540   -0.542708    1.115167
C       1.727103   -1.626331    0.498882
H       0.811351    2.032206   -0.168533
H      -0.790865    1.809941   -0.890268
H      -0.620138    1.907189    0.871388
H      -1.005818   -0.416648    0.165241
H       1.690345   -2.097698   -1.700742
H       4.227739    0.231053    0.077147
H       2.858249    1.314237   -0.223095
H       2.920970   -0.470821    2.027251
H       0.452996   -0.672808    2.097354
H       1.827029   -2.644743    0.849119
