19

C      -0.239456    1.461765    0.041952
C       0.041376   -0.053876   -0.057621
C       0.817333   -0.450040   -1.321502
O       0.216853    0.208959   -2.424059
C       2.297228   -0.115580   -1.146850
C       2.831410   -0.885135    0.052050
O       2.069737   -0.686688    1.252196
C       0.725046   -0.491898    1.240222
O       0.121438   -0.583643    2.274227
H       0.683100    2.046882    0.104430
H      -0.795724    1.793473   -0.835260
H      -0.826304    1.659922    0.941071
H      -0.925763   -0.564575   -0.062342
H       0.729775   -1.543287   -1.445932
H       0.652184   -0.091571   -3.227997
H       2.871260   -0.406399   -2.035004
H       2.427406    0.962682   -1.009864
H       2.846278   -1.962056   -0.163100
H       3.850295   -0.582449    0.304440
