23

C      -0.011246    1.556148    0.346870
C       0.021360    0.036512    0.115531
C       0.678710   -0.657692    1.322469
C      -1.420685   -0.478366   -0.064793
C       0.810726   -0.368103   -1.137122
O       0.333201    0.207014   -2.392455
C       1.682767    0.439312   -2.806931
C       2.334004    1.484338   -1.968814
C       2.248890    0.054406   -1.457114
H       0.984687    1.954665    0.560711
H      -0.414775    2.076808   -0.525779
H      -0.650572    1.790006    1.204989
H       0.119997   -0.443999    2.239569
H       0.703638   -1.745914    1.195378
H       1.707125   -0.310452    1.469503
H      -1.886227   -0.028944   -0.946619
H      -1.440652   -1.566676   -0.190441
H      -2.031634   -0.230965    0.809699
H       0.748023   -1.463261   -1.227890
H       1.955848    0.165901   -3.819510
H       3.335993    1.762833   -2.282649
H       1.746506    2.291136   -1.548711
H       3.129946   -0.524636   -1.216206
