12

C       0.006011    1.559933   -0.003788
C      -0.017130    0.054940   -0.030887
C       0.728868   -0.723832   -1.046223
O       1.205852   -0.638008    0.285016
C      -1.215617   -0.628307    0.556663
O      -2.234127   -0.063847    0.862055
H       0.917721    1.938777   -0.470477
H      -0.863593    1.958439   -0.533104
H      -0.039357    1.923393    1.026741
H       0.375226   -1.706097   -1.358753
H       1.294997   -0.170520   -1.794188
H      -1.072739   -1.723185    0.695535
