17

C      -0.117648    1.385432    0.217667
C      -0.107707   -0.062495    0.081441
C      -0.104913   -1.261996   -0.023909
C      -0.099714   -2.700733   -0.164002
O       0.427111   -3.430654    0.995384
C      -0.763618   -4.225272    1.105752
C      -1.846803   -3.581057    1.987870
O      -2.394861   -2.870333    0.843088
C      -1.448798   -3.468423   -0.044855
H       0.445927    1.697670    1.103755
H       0.335649    1.872203   -0.652697
H      -1.139151    1.766855    0.322372
H       0.459447   -3.003776   -1.060257
H      -0.564198   -5.295122    1.180104
H      -2.585525   -4.273262    2.410262
H      -1.467314   -2.907688    2.762651
H      -1.898288   -3.868502   -0.955026
