21

C       0.012359    1.501737    0.062708
C       0.002644    0.003783   -0.023359
C      -0.023509   -0.691850   -1.163897
C      -0.032289   -2.202813   -1.095192
C      -1.083594   -2.646187   -0.028535
C       0.002663   -2.300253    1.014029
O      -0.060009   -3.053683    2.198850
C       1.058163   -2.659257   -0.075683
C       0.017274   -0.783752    1.274893
H       0.902450    1.866186    0.592625
H      -0.002478    1.960933   -0.929553
H      -0.854784    1.875041    0.623387
H      -0.039264   -0.196405   -2.130599
H      -0.057711   -2.680097   -2.074364
H      -2.033692   -2.108123    0.010923
H      -1.256376   -3.725327   -0.046068
H       0.604947   -2.716034    2.809229
H       1.218567   -3.740301   -0.100419
H       2.014127   -2.128669   -0.081471
H       0.910426   -0.518832    1.864732
H      -0.847707   -0.517377    1.899186
