17

O      -0.739026    0.909673   -0.610362
C       0.128088    0.975580    0.223074
C       1.365867    1.841373    0.116263
C       1.453927    2.593067   -1.214501
C       2.553987    3.614817   -1.211738
C       3.124241    4.097955   -0.099689
C       2.677760    3.704775    1.252300
O       3.228950    4.098125    2.259157
C       1.437308    2.812970    1.313262
H       0.061839    0.388609    1.167997
H       2.226647    1.159562    0.203333
H       1.599465    1.888388   -2.040433
H       0.492266    3.080798   -1.428289
H       2.891612    3.969599   -2.183212
H       3.933970    4.819661   -0.136305
H       0.559903    3.475473    1.299653
H       1.435036    2.292006    2.274308
