18

O      -0.195277    1.284106    0.483826
C      -0.167284   -0.062998    0.199806
C       0.836226   -0.721409   -0.750166
C      -0.288809   -1.689439   -1.236934
C      -1.284095   -1.000526   -0.297139
C      -0.793077   -1.052283    1.130030
N      -0.050634   -2.140432    1.696328
C       1.015056   -1.897210    2.507404
O       1.468127   -0.793995    2.738700
H       0.313586    1.400475    1.297471
H       1.142632   -0.026570   -1.534510
H       1.726048   -1.161755   -0.292063
H      -0.538962   -1.549297   -2.290018
H      -0.119372   -2.755088   -1.057003
H      -2.329493   -0.807644   -0.507199
H      -1.473194   -0.560937    1.824560
H      -0.413469   -3.080142    1.645489
H       1.441782   -2.826657    2.932889
