17

O      -0.046052    1.368880    0.016815
N       0.055588   -0.034304    0.012873
C      -1.084805   -0.608747   -0.007051
C      -2.438367    0.052221    0.016532
C      -3.311694   -0.614306    1.097107
O      -3.354397   -2.021565    0.952820
C      -2.072844   -2.607894    1.092032
C      -1.110002   -2.113943   -0.001981
H       0.879169    1.633425    0.042291
H      -2.349417    1.124120    0.196572
H      -2.921623   -0.091680   -0.958472
H      -2.927199   -0.347100    2.095569
H      -4.345103   -0.264370    1.026577
H      -1.654704   -2.377402    2.086201
H      -2.217295   -3.689613    1.024900
H      -1.480769   -2.475004   -0.970467
H      -0.102201   -2.509380    0.148791
