20

O       0.039874    1.407547    0.104349
C       0.037399   -0.009514    0.017679
C      -1.416570   -0.475940    0.022020
C      -1.564763   -2.014283   -0.122501
C      -2.682231   -2.402385    0.854563
C      -3.824801   -3.274715    0.459815
N      -2.805461   -3.763502    1.405881
C      -2.828267   -1.233638    1.763765
C      -2.148153   -0.179759    1.315289
H       0.951489    1.705880    0.169328
H       0.533231   -0.353806   -0.904961
H       0.567507   -0.464849    0.869902
H      -1.915478    0.042106   -0.809241
H      -1.765243   -2.328586   -1.150138
H      -0.631595   -2.500453    0.193279
H      -4.810281   -3.117461    0.891060
H      -3.833715   -3.667442   -0.554426
H      -2.159458   -4.385606    0.924340
H      -3.442841   -1.276533    2.655286
H      -2.110626    0.800122    1.774914
