19

O      -0.184843    1.358488   -0.061590
C      -0.032728   -0.048727   -0.006020
C       0.116144   -0.634656    1.428827
C      -1.420386   -0.474530    1.586729
C      -1.457818   -0.668605    0.031741
O      -2.451575   -0.079584   -0.748232
C      -1.336474   -2.160710   -0.289956
C      -0.473775   -2.848554    0.788914
O       0.532880   -1.988377    1.326467
H       0.672788    1.770466    0.080001
H       0.673204   -0.420373   -0.760037
H       0.784312   -0.134904    2.133558
H      -1.964823   -1.169221    2.228421
H      -1.666842    0.553399    1.854800
H      -2.274169    0.869658   -0.742205
H      -2.334928   -2.610586   -0.308475
H      -0.904132   -2.276424   -1.289677
H      -1.119322   -3.204692    1.603473
H       0.051922   -3.718902    0.387575
