23

C       0.044452    1.615319    0.097022
C       0.034315    0.076260    0.115768
C       0.813279   -0.441912    1.338004
C      -1.411416   -0.473144    0.100709
C      -2.301210   -0.094251    1.280603
O      -3.566184   -0.703562    1.053303
C       0.710733   -0.456293   -1.186105
C       2.098495   -0.049229   -1.370557
C       3.243191    0.288803   -1.518947
H       1.065609    1.992212   -0.010144
H      -0.546666    2.003926   -0.740109
H      -0.368473    2.031797    1.020566
H       0.407133   -0.043641    2.272520
H       0.776214   -1.535798    1.395152
H       1.864218   -0.144699    1.278929
H      -1.917187   -0.136470   -0.813268
H      -1.381769   -1.569094    0.050538
H      -1.860697   -0.447624    2.225032
H      -2.400956    0.999229    1.353003
H      -4.143199   -0.477698    1.788533
H       0.656887   -1.552812   -1.187297
H       0.122361   -0.121690   -2.050464
H       4.253991    0.582209   -1.658488
