14

O       0.010855    0.046463    0.003837
C      -0.038898    1.236238    0.010471
C      -1.307628    2.138784    0.033208
C      -0.666360    3.477236    0.030683
C       0.688677    3.341373    0.010540
O       1.104327    2.020325   -0.002024
C       1.306633    4.608424    0.007959
C       0.252346    5.507977    0.027639
N      -0.941159    4.818925    0.041304
H      -1.921853    1.894788   -0.841515
H      -1.896499    1.885974    0.922740
H       2.355869    4.851940   -0.005906
H       0.262697    6.585545    0.032900
H      -1.850591    5.245195    0.056462
