13

O       0.081658    1.372169   -0.064385
C       0.055935    0.014030   -0.051167
C       0.022441   -0.704077   -1.243016
C      -0.003683   -2.096823   -1.213779
C       0.003265   -2.784790   -0.002697
C       0.036759   -2.074258    1.197620
C       0.062371   -0.694275    1.152085
F       0.095169    0.037330    2.287193
H       0.102639    1.674831    0.851866
H       0.017410   -0.155327   -2.177760
H      -0.029682   -2.646370   -2.148289
H      -0.017152   -3.868132    0.014630
H       0.043249   -2.570626    2.161047
