18

N       0.153127    1.379090   -0.690902
C      -0.110478    0.453689    0.281481
O       0.624813    0.258248    1.227669
C      -1.429628   -0.259878    0.106318
O      -1.464432   -1.620412    0.550375
C      -2.209706   -0.680795    1.286899
C      -2.002670   -0.326544    2.759048
C      -3.520525    0.028413    2.819088
C      -3.732634   -0.687960    1.450118
H       1.049075    1.839032   -0.662763
H      -0.361021    1.399804   -1.554594
H      -1.966260   -0.077710   -0.826924
H      -1.756035   -1.219521    3.340286
H      -1.273640    0.450209    2.987473
H      -4.082875   -0.368575    3.665432
H      -3.697756    1.104441    2.755344
H      -4.328781   -0.177470    0.689806
H      -4.107788   -1.709182    1.565590
