19

C      -0.067177    1.347973    0.472559
C      -0.110854   -0.076329   -0.108051
C      -1.492166   -0.609786   -0.271664
C      -2.232351   -0.991780   -1.347631
C      -3.504698   -1.417342   -0.842569
C      -3.458551   -1.258999    0.505906
C      -4.405670   -1.523685    1.622967
O      -3.996125   -2.592518    2.471568
O      -2.232742   -0.763494    0.867823
H       0.966530    1.686588    0.589932
H      -0.587109    2.052901   -0.183131
H      -0.550658    1.381430    1.452732
H       0.373898   -0.098676   -1.089238
H       0.467019   -0.747905    0.540775
H      -1.909044   -0.975351   -2.376989
H      -4.342214   -1.794946   -1.408512
H      -4.560751   -0.603289    2.208325
H      -5.372192   -1.815197    1.203647
H      -3.109306   -2.381099    2.781710
