21

C       0.032044    1.596114    0.150210
C       0.066566    0.082322    0.023857
C       1.176758   -0.596251   -0.930010
O       2.331540    0.165945   -1.198599
C       1.311233   -1.743521    0.141785
C       2.095343   -1.963178    1.479937
C       2.125591   -0.434347    1.669566
C       0.683734   -0.775610    1.152821
C       0.668133   -1.940349    2.193997
H       1.018439    1.990202    0.411575
H      -0.283600    2.067511   -0.788709
H      -0.673480    1.909516    0.926792
H      -0.913146   -0.306878   -0.275824
H       0.751072   -0.980954   -1.867238
H       2.085902    0.876250   -1.800891
H       0.685612   -2.589328   -0.159530
H       2.899207   -2.674281    1.693309
H       2.181576   -0.072208    2.700468
H       2.776845    0.126587    1.004397
H      -0.000545   -2.777671    1.975578
H       0.672588   -1.694315    3.261058
