15

C       0.180439    1.465204    0.260548
C      -0.102257   -0.012945   -0.035475
O      -1.483005   -0.235569   -0.300358
C       0.643884   -0.502859   -1.239067
C       0.133702   -0.961160   -2.412318
O       1.118774   -1.306794   -3.255637
N       2.342337   -1.079351   -2.638945
C       2.048146   -0.607336   -1.452693
H       1.246114    1.633550    0.444472
H      -0.130165    2.084142   -0.585663
H      -0.365927    1.788133    1.154375
H       0.212089   -0.607354    0.839371
H      -1.987606    0.121234    0.436930
H      -0.874251   -1.096302   -2.767244
H       2.855302   -0.355130   -0.778532
