14

C      -0.001227    1.584673   -0.230483
C      -0.049371    0.079512   -0.109699
C      -1.368193   -0.521240    0.379440
C      -1.793871    0.018425    1.671281
N      -2.128887    0.458919    2.685372
C       0.820068   -0.772613   -0.933314
O       1.111333   -0.537687    0.447718
H       0.984729    1.903611   -0.574818
H      -0.754249    1.942996   -0.940585
H      -0.198754    2.054558    0.737808
H      -2.160124   -0.327332   -0.353947
H      -1.259983   -1.606139    0.469571
H       0.515007   -1.788691   -1.181412
H       1.504478   -0.309615   -1.642370
