21

C       0.987468    1.136546    0.109452
O       1.681145   -0.078510   -0.172929
C       0.257231   -0.133600   -0.002717
C      -0.226332   -0.866740    1.215562
C      -1.768747   -0.860096    1.487850
C      -1.870791   -2.038373    0.476207
C      -0.480393   -2.405367    1.071104
C      -0.852386   -2.783033    2.518720
C      -1.836625   -1.603958    2.836990
H       1.172647    1.561625    1.095720
H       0.952617    1.858862   -0.705468
H      -0.278851   -0.310831   -0.934694
H       0.407654   -0.576880    2.061643
H      -2.365123    0.047496    1.383350
H      -2.686821   -2.754663    0.613153
H      -1.833778   -1.727222   -0.568250
H       0.224343   -3.050260    0.545679
H      -1.335545   -3.762389    2.578796
H       0.017612   -2.796038    3.181261
H      -1.497148   -0.984564    3.672071
H      -2.848839   -1.950048    3.065012
