18

C      -0.139801    1.538883    0.182311
C       0.019153    0.021873    0.047091
C       0.722835   -0.408695   -1.257383
N       2.115549    0.039304   -1.273693
C       2.798232   -0.210518   -2.542668
C       4.146530    0.358894   -2.520277
N       5.199512    0.832717   -2.511089
C       0.684135   -1.876301   -1.388056
N       0.638487   -3.024685   -1.505466
H       0.820299    2.053460    0.293143
H      -0.658903    1.966231   -0.682604
H      -0.728556    1.775919    1.072565
H       0.585794   -0.384102    0.890709
H      -0.966656   -0.452938    0.062098
H       0.143085   -0.008300   -2.111878
H       2.143617    1.030406   -1.062783
H       2.876437   -1.293155   -2.696349
H       2.268967    0.197673   -3.422650
