19

N       1.098744   -0.669988    0.848008
C       0.537388    0.284332    0.512073
C      -0.152212    1.502432    0.026652
C      -0.895415    2.254383    1.160108
C       0.144033    3.243323    1.702656
C       1.242874    2.681254    2.654692
C       2.315921    2.880815    1.546173
C       1.208335    3.395471    0.570036
N       0.742461    2.527339   -0.510685
H      -0.850479    1.170820   -0.750407
H      -1.735150    2.791392    0.710943
H      -1.289744    1.575192    1.919330
H      -0.320658    4.167165    2.049605
H       1.400424    3.278745    3.555133
H       1.089407    1.642941    2.958027
H       3.068517    3.636840    1.783671
H       2.829398    1.972840    1.221299
H       1.384589    4.399883    0.175431
H       1.487619    2.146389   -1.082251
