22

C      -0.058216    1.519102   -0.045499
C       0.020407    0.008080    0.033312
C       0.062640   -0.662571   -1.334113
C       0.103124   -2.198846   -1.275290
C       1.103000   -2.691215   -0.264350
C       1.379976   -1.998595    0.839240
C       0.724640   -0.694377    1.157141
C       1.365196    0.053822    2.308446
N      -0.771094   -0.709910    1.050998
H       0.792648    1.929010   -0.601363
H      -0.969983    1.820004   -0.575323
H      -0.076282    1.994528    0.937697
H      -0.802216   -0.337250   -1.925343
H       0.956007   -0.295958   -1.857254
H      -0.892052   -2.576077   -1.010473
H       0.332359   -2.598072   -2.269518
H       1.587043   -3.647486   -0.443377
H       2.098872   -2.374795    1.563024
H       2.413414    0.287608    2.090460
H       0.854490    0.990437    2.541728
H       1.349220   -0.565647    3.212987
H      -1.154084   -0.038316    1.715121
