21

C      -0.047774    1.604862    0.053715
C       0.035151    0.099592   -0.054774
C       0.011374   -0.494627   -1.266442
C      -0.102091   -1.897542   -1.673408
C       0.415034   -3.058897   -1.241547
C       1.419203   -3.388297   -0.174201
C       1.941810   -2.203098    0.652157
C       0.890638   -1.614894    1.548799
C       0.072417   -0.608376    1.227780
H       0.835281    2.016921    0.557634
H      -0.135422    2.079517   -0.926853
H      -0.915272    1.904099    0.656436
H      -0.065622    0.184936   -2.115952
H      -0.731758   -1.994399   -2.559291
H       0.110678   -3.936876   -1.811259
H       0.987760   -4.140459    0.501078
H       2.264960   -3.899666   -0.659973
H       2.785798   -2.549143    1.259980
H       2.325356   -1.437832   -0.030347
H       0.804629   -2.051555    2.542341
H      -0.598698   -0.221131    1.994702
