9

F       0.023610    0.076114    0.165309
C      -0.018679    1.380461    0.045882
C      -1.174031    2.060119   -0.040731
N      -1.172862    3.442088   -0.166205
N      -0.149489    4.122067   -0.205901
O       1.138526    3.439823   -0.116202
C       1.273034    2.079583    0.010168
O       2.351770    1.565798    0.080205
H      -2.145534    1.584043   -0.018399
