16

C       0.380584    1.081306    0.576373
C      -0.377266    0.267511   -0.484788
C       0.526459   -0.300509   -1.531480
N       0.491353   -0.052235   -2.776946
C       1.567891   -0.840018   -3.394865
C       2.249167   -1.573821   -2.210298
O       1.474738   -1.164546   -1.062269
H       1.130820    0.464730    1.077539
H       0.890512    1.936274    0.122096
H      -0.312722    1.462306    1.331262
H      -0.904027   -0.562861    0.001027
H      -1.121838    0.882434   -0.994206
H       1.147359   -1.533137   -4.131672
H       2.257226   -0.178959   -3.930661
H       2.205106   -2.664019   -2.283579
H       3.288676   -1.273144   -2.049160
