19

C      -0.023276    1.529008   -0.032073
C       1.447639    2.022274    0.013141
C       2.225293    0.852431   -0.616178
C       3.681882    0.571326   -0.277628
O       3.975147    0.440398    1.112366
C       3.738941   -0.769115    0.341360
C       2.330782   -1.255607    0.479675
C       1.494763   -0.341073   -0.019142
C       0.032748   -0.025124    0.145775
H      -0.645881    2.010638    0.726100
H      -0.462942    1.773565   -1.004834
H       1.584960    2.975265   -0.504868
H       1.781486    2.145286    1.048618
H       2.109185    0.879338   -1.709928
H       4.485720    0.974763   -0.887767
H       4.595568   -1.432817    0.271867
H       2.059666   -2.148962    1.029465
H      -0.337853   -0.343701    1.124754
H      -0.588753   -0.528546   -0.603757
