15

O      -0.485857    1.490928    0.421327
C      -1.182080    0.317166    0.721237
C      -1.057893   -0.700661   -0.396392
O      -0.420205   -0.454768   -1.390114
C      -1.773722   -2.076555   -0.234610
C      -1.224595   -2.804125    0.911674
C      -0.742668   -3.387650    1.843799
C      -3.223311   -1.888435   -0.144247
C      -4.409230   -1.707859   -0.093244
H      -0.090391    1.347380   -0.451662
H      -0.808593   -0.148550    1.646241
H      -2.253243    0.513317    0.882952
H      -1.536104   -2.621275   -1.156768
H      -0.325873   -3.910938    2.669161
H      -5.459967   -1.558817   -0.043177
