16

O       0.074532    0.958270   -1.130708
C      -0.217665    0.141926   -0.016189
C      -1.695389   -0.208772    0.038948
O      -1.966213   -0.945524   -1.157622
C      -3.316977   -1.107490   -1.488628
C      -3.846585    0.053561   -2.327819
F      -3.082158    0.261640   -3.405206
F      -5.092797   -0.215347   -2.743814
F      -3.887292    1.203725   -1.635452
H      -0.315963    0.517532   -1.894698
H       0.371625   -0.788970   -0.027429
H       0.059192    0.704247    0.881547
H      -1.927947   -0.823759    0.921522
H      -2.294543    0.707242    0.070836
H      -3.407177   -2.011279   -2.099061
H      -3.962708   -1.216056   -0.607175
