21

C      -0.608676    1.082623   -1.269548
C       0.202647   -0.101281   -0.759169
C       1.709996   -0.193247   -1.116116
C       2.002696   -0.732555    0.303622
C       3.206749   -0.193436    1.033854
O       3.860606    0.745263    0.648738
C       0.582343   -0.209045    0.756110
C       0.621157    1.098695    1.537312
O       1.216186    0.930847    2.818576
H      -0.142037    2.039300   -1.014110
H      -0.692796    1.041836   -2.361158
H      -1.625536    1.083490   -0.861356
H      -0.298536   -1.030020   -1.053751
H       1.991020   -0.828537   -1.958809
H       2.171833    0.788916   -1.248181
H       2.024950   -1.826693    0.349960
H       3.468361   -0.721114    1.975914
H      -0.006380   -0.938355    1.325288
H       1.241314    1.842943    1.028995
H      -0.393765    1.515942    1.621405
H       0.678492    0.303261    3.313065
