13

O       0.001268   -0.032722   -0.080067
C      -0.012658    1.149776    0.048591
C      -1.035981    2.310723    0.040740
C      -0.802242    2.982635    1.407086
C       0.766682    3.003587    1.384385
C       0.978657    2.337618    0.011593
O      -0.049549    2.975742   -0.816260
H      -2.036245    2.249023   -0.382246
H      -1.232513    3.985741    1.429444
H      -1.217729    2.403812    2.236153
H       1.170486    4.017832    1.394681
H       1.221280    2.436380    2.200861
H       1.967558    2.302480   -0.440171
