21

C      -0.104814    1.550480    0.167440
C      -0.041306    0.015846    0.053182
C       0.790743   -0.545523    1.222465
C      -1.464032   -0.569656    0.095181
C       0.638470   -0.423564   -1.261982
C       0.160551    0.103350   -2.631745
O       1.480255    0.690409   -2.877525
C       1.946984    0.272405   -1.657063
O       3.021278    0.470974   -1.184932
H       0.895868    1.993002    0.150338
H      -0.691804    2.001192   -0.639511
H      -0.579290    1.836977    1.111340
H       0.359375   -0.238896    2.180963
H       0.813409   -1.640724    1.200958
H       1.822396   -0.185423    1.177561
H      -2.083467   -0.183984   -0.722201
H      -1.447469   -1.662402    0.019253
H      -1.959212   -0.308142    1.036299
H       0.763588   -1.511275   -1.258957
H      -0.073965   -0.647931   -3.388195
H      -0.604900    0.880960   -2.616430
