21

C      -0.133785    1.539802    0.083325
C      -0.017733    0.011469   -0.019315
C       0.797712   -0.461791   -1.207684
C       1.822259   -1.252626   -0.869291
C       2.832226   -1.897561   -1.763795
C       1.853299   -1.391023    0.623306
O       2.068878   -0.129791    1.307928
C       0.725629   -0.619597    1.171232
C      -0.001806   -0.924506    2.451331
H       0.858108    1.980643    0.211332
H      -0.588228    1.961148   -0.818817
H      -0.755250    1.832147    0.936439
H      -1.031659   -0.413129   -0.068871
H       0.575691   -0.136116   -2.219597
H       2.625793   -1.688480   -2.816893
H       3.845894   -1.544241   -1.536933
H       2.844081   -2.987019   -1.631566
H       2.291503   -2.256439    1.115140
H      -0.391745   -0.005769    2.904424
H      -0.849310   -1.593817    2.269505
H       0.670714   -1.396110    3.172205
