18

O       0.314875    1.437761    0.140059
C       0.130351    0.054276    0.053633
C       0.314013   -0.762180    1.340502
N      -0.733580   -0.223689    2.244731
C      -1.078764   -1.280493    1.253151
C      -1.342452   -0.515137   -0.041682
C      -2.564401    0.373050   -0.300248
C      -2.774996   -0.527610   -1.533370
O      -1.604334   -1.315402   -1.206880
H      -0.080345    1.697443    0.983732
H       0.711399   -0.322520   -0.791456
H       1.212171   -1.218794    1.737513
H      -0.625117   -0.674072    3.151907
H      -1.489861   -2.234227    1.559296
H      -3.341865    0.332256    0.463950
H      -2.312238    1.413310   -0.513282
H      -3.684730   -1.139149   -1.532638
H      -2.673835   -0.037434   -2.508060
