20

C       0.168297    1.506386    0.107586
C       0.054178   -0.010929    0.226495
O       0.302761   -0.432756    1.578854
C      -1.300947   -0.543179   -0.272714
C      -1.389319   -2.036270   -0.344650
C      -1.943111   -2.865382   -1.298098
C      -1.773887   -4.207540   -0.856411
C      -1.118641   -4.159261    0.352279
N      -0.899801   -2.841085    0.657073
H       1.120788    1.849694    0.520078
H       0.106578    1.824968   -0.937554
H      -0.643337    2.002922    0.654655
H       0.855139   -0.485198   -0.351033
H      -0.312239    0.046813    2.146448
H      -2.081834   -0.126623    0.385704
H      -1.502209   -0.137238   -1.269860
H      -2.421174   -2.539381   -2.210060
H      -2.095845   -5.102345   -1.366826
H      -0.788031   -4.944820    1.012834
H      -0.375466   -2.469152    1.433661
