21

C      -0.128301    1.603530    0.066411
C       0.029352    0.075901    0.027722
C       0.765765   -0.445552   -1.194790
C       1.753166   -1.284910   -0.878899
C       1.897055   -1.443837    0.602369
C       2.243104   -2.786045    1.182054
O       3.568944   -3.115869    0.779007
C       2.305209   -0.168332    1.314169
C       0.842038   -0.517828    1.186321
H       0.845774    2.101945    0.068084
H      -0.687538    1.961717   -0.804547
H      -0.670442    1.918346    0.963951
H      -0.982577   -0.357258    0.048320
H       0.505423   -0.130747   -2.200123
H       2.413824   -1.788865   -1.574577
H       2.159020   -2.746238    2.280201
H       1.527261   -3.543099    0.823608
H       3.739901   -4.027272    1.034541
H       2.742474   -0.269201    2.302916
H       2.722110    0.634226    0.715777
H       0.316111   -0.788504    2.095635
