18

C       0.137653    1.382785    0.279133
C      -0.104597   -0.046750   -0.200988
C       0.852944   -0.485640   -1.342310
C       1.614835   -1.715270   -0.775407
C       1.383325   -1.546508    0.740778
O       0.090370   -0.987979    0.862468
C       1.003694   -3.009340   -1.263909
O       1.577962   -3.832169   -1.929901
H       1.174943    1.517782    0.604091
H      -0.059824    2.097418   -0.527088
H      -0.519945    1.619750    1.119741
H      -1.152259   -0.151308   -0.503545
H       0.308372   -0.725790   -2.259667
H       1.561941    0.309478   -1.587949
H       2.672474   -1.715648   -1.047161
H       1.394124   -2.488524    1.298215
H       2.158847   -0.890761    1.167065
H      -0.056579   -3.157395   -0.952408
