19

O      -0.014867    1.370420   -0.117553
C       0.003082   -0.033216   -0.082128
C       1.002220   -0.739235   -1.098916
C       1.801239   -1.228731    0.107706
O       2.177614   -0.062575    0.865238
C       0.867213   -0.618002    1.064739
C      -1.407697   -0.558169   -0.136233
C      -2.527262    0.179902    0.553807
C      -2.459399    0.148030   -0.953406
H       0.886481    1.648225    0.091323
H       0.520658   -1.542251   -1.662266
H       1.534479   -0.072973   -1.781924
H       2.433045   -2.102225    0.213709
H       0.587009   -0.884741    2.077875
H      -1.457976   -1.643387   -0.114619
H      -3.293111   -0.404254    1.051855
H      -2.275679    1.116203    1.036753
H      -2.164548    1.063031   -1.452590
H      -3.177664   -0.458607   -1.493559
