17

C       0.256522    1.533994   -0.009437
C       0.123348    0.084988    0.003060
C       0.005205   -1.111835    0.013806
C      -0.146564   -2.555548    0.025126
C      -1.604919   -3.047783    0.035609
O      -2.546010   -2.328912    0.223459
C      -1.737881   -4.561836   -0.222553
C      -3.055979   -5.106311    0.048283
C      -4.143031   -5.562834    0.273849
H       0.858841    1.886430    0.835073
H       0.738184    1.882717   -0.929545
H      -0.723791    2.018239    0.056739
H       0.366642   -3.017129   -0.830301
H       0.335698   -2.992668    0.912918
H      -1.462128   -4.727505   -1.274536
H      -0.969435   -5.086497    0.360952
H      -5.107340   -5.958344    0.476433
