21

C      -0.090461    1.534634   -0.078850
C      -0.028449    0.014647   -0.025384
C       1.196126   -0.604584   -0.753005
O       1.966943   -0.490597    0.483623
C       0.702651   -0.593513    1.213190
C       0.735905    0.129136    2.539764
C       0.366637   -2.096813    1.349694
C       0.540995   -2.790634    0.015798
C       0.944991   -2.070097   -1.029355
H       0.889556    1.975107    0.126411
H      -0.408881    1.868296   -1.072449
H      -0.805401    1.935006    0.647996
H      -0.996694   -0.429221   -0.273474
H       1.658473   -0.054253   -1.576094
H       0.980758    1.185990    2.414787
H      -0.232434    0.050857    3.046143
H       1.493907   -0.321882    3.189257
H       1.023220   -2.551241    2.104720
H      -0.660178   -2.221398    1.721322
H       0.345228   -3.857054   -0.048195
H       1.089057   -2.483776   -2.021588
