18

C       0.374191    0.632648   -0.427747
O      -0.593059    0.351185    0.583687
C      -1.549766   -0.609329    0.335119
O      -2.275001   -0.331368   -0.881816
C      -2.689422   -1.569244   -1.398983
C      -1.637645   -2.586322   -1.797530
N      -0.364353   -2.193088   -1.156957
C      -1.126094   -2.076871    0.149887
C      -2.393021   -2.717691   -0.479873
H       0.822304    1.587968   -0.142780
H       1.148971   -0.137553   -0.478557
H      -0.096176    0.720455   -1.409177
H      -2.239700   -0.537166    1.190304
H      -3.613991   -1.522968   -1.961426
H      -1.672833   -3.167570   -2.712243
H       0.216381   -3.026010   -1.090547
H      -0.648152   -2.528672    1.017500
H      -3.087744   -3.439084   -0.067971
