19

C       0.093553    1.402063    0.044010
N      -0.077916   -0.037105   -0.009524
C      -1.300839   -0.630557   -0.103813
O      -2.349149   -0.006427   -0.118288
C      -1.262473   -2.152837   -0.210355
C      -2.596754   -2.760765    0.193632
O      -2.499939   -4.171848   -0.013623
C      -3.652332   -4.863574    0.054635
N      -3.640324   -6.122911   -0.033721
H       0.606830    1.707230    0.962356
H       0.664930    1.769292   -0.815818
H      -0.901614    1.847371    0.026743
H       0.740721   -0.622673   -0.001441
H      -1.045607   -2.429351   -1.249467
H      -0.456349   -2.572585    0.400863
H      -2.815290   -2.549923    1.247844
H      -3.401082   -2.328048   -0.409554
H      -4.539689   -4.226837    0.179030
H      -4.591466   -6.481449    0.019862
