19

O       0.146011    0.035657   -0.075904
C      -0.028692    1.220963   -0.011920
C      -1.361744    1.930932    0.105705
C      -1.480761    2.924621   -1.085167
C      -1.129154    2.266243   -2.399404
C       0.084639    2.151463   -2.950196
C       1.399320    2.685664   -2.418836
C       1.916879    1.934820   -1.179696
O       0.973030    2.144190   -0.120275
H      -2.149193    1.174493    0.089878
H      -1.423623    2.477431    1.053144
H      -2.502726    3.315669   -1.119341
H      -0.812169    3.767008   -0.889927
H      -1.957151    1.784389   -2.916214
H       0.154283    1.590767   -3.879726
H       2.163035    2.631107   -3.202354
H       1.304032    3.743055   -2.143203
H       2.035307    0.863066   -1.360237
H       2.869460    2.350622   -0.841562
