18

C       0.062536    1.526494   -0.081007
C       0.071335    0.002359    0.042105
C       0.701751   -0.510048    1.347170
C       0.891763   -2.064996    1.363780
O       2.264105   -2.226181    1.062154
C       2.883620   -1.132203    1.682623
O       2.040407   -0.016770    1.450385
C      -0.080559   -0.069092    2.520603
N      -0.710766    0.260491    3.431423
H       1.077924    1.924254   -0.012848
H      -0.361822    1.827987   -1.042540
H      -0.537670    1.984742    0.711168
H      -0.948499   -0.394821   -0.023029
H       0.650819   -0.445667   -0.772879
H       0.646136   -2.479290    2.350579
H       0.299972   -2.567290    0.597069
H       2.999657   -1.303483    2.766861
H       3.853634   -0.949992    1.214618
