21

C      -0.656416    1.597628   -0.221836
C       0.069507    0.287449    0.134701
C       0.841245   -0.260084   -0.976779
C       1.469249   -0.688291   -1.912159
C       2.227360   -1.232636   -3.027078
C       3.770153   -1.258616   -2.827454
C       4.211275   -2.538786   -3.582766
O       3.035291   -3.124451   -4.137456
C       1.943506   -2.719453   -3.337542
H       0.058517    2.367412   -0.524841
H      -1.354165    1.442201   -1.049175
H      -1.219527    1.969291    0.639537
H       0.734367    0.459566    0.991126
H      -0.664070   -0.456920    0.470721
H       2.002019   -0.661926   -3.936068
H       4.240841   -0.354543   -3.218589
H       4.009454   -1.324861   -1.763800
H       4.898802   -2.338574   -4.409627
H       4.701242   -3.245132   -2.896655
H       1.885883   -3.295211   -2.399330
H       1.024124   -2.878508   -3.905622
