18

C      -0.297070    1.491576    0.055539
N       0.043222    0.070779    0.000583
C       0.064495   -0.640712    1.202869
O      -0.181734   -0.146598    2.277224
C       0.348072   -0.614291   -1.189890
O       0.624882   -1.798738   -1.183062
C       0.316936    0.172377   -2.454182
C       1.314086   -0.245175   -3.527800
C      -0.125423   -0.581569   -3.701900
H       0.524904    2.111343   -0.312559
H      -1.199961    1.706311   -0.522282
H      -0.479862    1.727721    1.103492
H       0.330391   -1.692604    1.045983
H       0.065644    1.221596   -2.402567
H       1.747191    0.547921   -4.126001
H       1.984310   -1.051074   -3.254307
H      -0.418110   -1.612712   -3.545104
H      -0.713768   -0.027136   -4.423606
