23

C      -0.069377    1.224294   -0.200458
O      -0.149097   -0.009118    0.485468
C      -1.332191   -0.698705    0.224477
C      -1.384613   -1.686108   -0.927574
C      -0.211418   -1.861815   -1.868005
C      -1.328164   -2.172114    0.518355
C      -0.119603   -2.841739    1.094700
C      -0.199818   -3.484329    2.458224
C      -0.080052   -4.345954    1.225410
H       0.878893    1.688972    0.080404
H      -0.096856    1.090204   -1.290720
H      -0.892830    1.896194    0.086158
H      -2.231570   -0.122900    0.452305
H      -2.356717   -1.787285   -1.404636
H       0.728211   -1.563477   -1.397879
H      -0.111141   -2.905050   -2.186369
H      -0.339870   -1.252109   -2.769116
H      -2.264374   -2.566081    0.908378
H       0.820621   -2.354782    0.866139
H       0.657429   -3.400955    3.117076
H      -1.155599   -3.464794    2.972137
H      -0.956783   -4.903197    0.911249
H       0.858491   -4.856785    1.039416
