23

C      -0.079923    1.573019    0.001434
C       0.033279    0.047947    0.014281
C       1.205636   -0.597088   -0.804626
C       2.081742   -0.258945    0.439540
C       0.782169   -0.611418    1.224865
C       0.563656   -2.190193    1.170783
C       1.720324   -2.838513    0.345916
C       0.988183   -2.175827   -0.863805
C      -0.303987   -2.559553   -0.074497
H       0.856325    2.099345    0.200896
H      -0.445796    1.914072   -0.974028
H      -0.806860    1.901803    0.753208
H      -0.966593   -0.323733   -0.196985
H       1.469191   -0.181287   -1.780493
H       3.004388   -0.801852    0.628226
H       2.312047    0.804215    0.495093
H       0.632328   -0.209609    2.230234
H       0.303363   -2.603236    2.147560
H       2.760428   -2.607859    0.564569
H       1.612052   -3.925422    0.315650
H       1.141369   -2.574880   -1.868663
H      -0.473345   -3.638468   -0.117453
H      -1.253239   -2.065230   -0.269071
