20

C       0.143156    1.410711    0.097918
N       0.168045   -0.040775    0.072130
C       0.501371   -0.634798   -0.999983
O       0.881482    0.065857   -2.113349
C       0.824305   -0.614836   -3.370440
C       1.560541   -1.945996   -3.320845
C       1.090198   -2.720029   -2.122848
C       0.562751   -2.112619   -1.051250
C       0.071086   -2.854539    0.159672
H       1.138013    1.804869    0.345838
H      -0.156837    1.859744   -0.856523
H      -0.542010    1.739600    0.884534
H      -0.227130   -0.781266   -3.642127
H       1.262785    0.075489   -4.094907
H       1.368625   -2.500626   -4.246928
H       2.647076   -1.784111   -3.275911
H       1.194078   -3.801813   -2.133741
H       0.613545   -2.538616    1.055133
H      -0.984158   -2.635354    0.350213
H       0.190269   -3.933231    0.027630
