17

C       0.013005    1.701492    0.054592
C      -0.085655    0.173201   -0.015500
C       0.403248   -0.496483    1.273971
N      -1.452711   -0.238526   -0.319852
C      -1.811252   -0.915418   -1.430152
O      -1.083141   -1.286096   -2.335727
C      -3.313437   -1.214016   -1.487470
O      -4.095560   -0.880821   -0.634396
H       1.045950    2.009383    0.242860
H      -0.317696    2.157663   -0.882242
H      -0.607001    2.098476    0.866941
H       0.509804   -0.188675   -0.858472
H      -0.201882   -0.183766    2.133004
H       0.346972   -1.585335    1.194296
H       1.441452   -0.218407    1.478949
H      -2.202527   -0.016797    0.322261
H      -3.602324   -1.770651   -2.400723
