15

C      -0.015179    1.461769    0.052095
N       0.003504   -0.002072    0.022076
C      -0.024001   -0.651588   -1.261873
O      -0.061082    0.020468   -2.278744
C      -0.002451   -2.093223   -1.184248
C       0.039745   -2.755474    0.005184
C       0.065230   -2.063020    1.242407
C       0.045338   -0.706374    1.177421
F       0.066083    0.044227    2.271359
H       0.882554    1.847994    0.540385
H      -0.048486    1.786878   -0.985910
H      -0.894292    1.824311    0.589917
H      -0.022059   -2.612848   -2.133243
H       0.054581   -3.840623    0.016747
H       0.098702   -2.557722    2.201450
