21

C       0.057645    1.400132   -0.106829
O       0.157433   -0.001810   -0.083201
C       0.511358   -0.507889    1.188966
C       0.566766   -2.018389    1.102311
C       1.770236   -2.694126    0.410300
C       2.706619   -2.523463    1.661379
C       3.089209   -4.016153    1.670088
C       1.604867   -4.001282    1.260631
C       1.268753   -2.811846    2.226493
H       1.013222    1.884866    0.151748
H      -0.222016    1.693581   -1.121887
H      -0.709759    1.768875    0.593242
H       1.484465   -0.096000    1.506972
H      -0.231779   -0.194487    1.944145
H      -0.411052   -2.412240    0.799563
H       2.077810   -2.642098   -0.634867
H       3.332772   -1.660565    1.890916
H       3.806860   -4.345549    0.911409
H       3.329628   -4.458233    2.642765
H       0.940693   -4.834614    1.024792
H       0.998665   -2.900195    3.281003
