10

O      -0.000913    1.462036    0.009925
C       0.000907    0.041388    0.002363
C      -1.368132   -0.451974    0.012781
C      -2.493596   -0.894175    0.021119
C      -3.761728   -1.387194    0.030578
C      -4.886007   -1.827365    0.039049
H       0.917775    1.750023    0.003285
H       0.512440   -0.356196   -0.889840
H       0.529300   -0.365603    0.880382
H      -5.875943   -2.210940    0.046518
