15

O      -0.176349    1.422944   -0.115006
C      -0.074878    0.030339   -0.078366
C       0.807896   -0.377822    1.124778
O       1.269714    0.463936    1.847359
C      -1.397056   -0.608706    0.112191
N      -2.409234   -1.143176    0.271109
C       0.570830   -0.515586   -1.360693
C       0.335871    0.184710   -2.642710
N       1.653765    0.244500   -1.980883
H       0.245417    1.738398    0.703815
H       0.989023   -1.458975    1.259862
H       0.705256   -1.594856   -1.351857
H       0.307194   -0.388681   -3.563718
H      -0.286809    1.073016   -2.619907
H       1.730914    1.145291   -1.510470
