21

C      -0.077844    1.433587   -0.187827
C       1.271516    0.838821    0.071785
C       0.010892   -0.056627    0.093298
C       0.487384   -0.715817   -1.161042
C       0.117706   -1.516639   -2.150349
C       1.052737   -1.544287   -3.345932
C       1.532342   -0.109807   -3.691583
C       2.198967    0.660142   -2.510057
C       1.794929    0.052840   -1.152840
H      -0.486497    2.027518    0.624331
H      -0.358947    1.780554   -1.178717
H       1.878827    1.154377    0.911277
H      -0.505946   -0.506398    0.931952
H      -0.808812   -2.082925   -2.160419
H       1.921171   -2.190960   -3.150417
H       0.548870   -1.973249   -4.218216
H       2.218949   -0.146202   -4.544282
H       0.651119    0.449091   -4.025269
H       3.288833    0.640888   -2.615279
H       1.904879    1.714048   -2.556378
H       2.584901   -0.627879   -0.810061
