21

C      -0.186348    1.575046   -0.019145
C       0.000996    0.065067    0.002316
C       1.233833   -0.589725   -0.670810
C       2.134747   -0.177366    0.541646
C       3.107919   -1.326237    0.772057
O       2.251544   -2.458886    0.543190
C       1.019045   -1.838003    0.228882
C       0.758888   -0.622968    1.174031
C       0.397626   -0.663717    2.634252
H       0.732154    2.118512    0.219786
H      -0.520974    1.910075   -1.007204
H      -0.950694    1.881996    0.703698
H      -0.947159   -0.429465   -0.248648
H       1.514941   -0.579450   -1.724909
H       2.501721    0.841642    0.653923
H       3.945692   -1.337465    0.063129
H       3.512435   -1.358912    1.791908
H       0.249733   -2.580725    0.017755
H       1.106196   -1.282681    3.195383
H       0.401177    0.338498    3.077340
H      -0.601437   -1.089738    2.779658
