16

O       0.124381    1.467725   -0.017389
C       0.124554    0.094954   -0.318781
C      -1.250610   -0.536281   -0.084804
C      -1.258594   -2.078210    0.110894
C      -1.558694   -1.747054    1.555031
N      -1.732218   -2.420223    2.595274
O      -1.584081   -0.376904    1.357459
C      -2.289597    0.015964   -0.931816
C      -3.141699    0.446335   -1.660781
H      -0.184224    1.555189    0.892535
H       0.400037   -0.006985   -1.372998
H       0.859451   -0.460650    0.285279
H      -2.057496   -2.604665   -0.410406
H      -0.304141   -2.577477   -0.065568
H      -1.922992   -1.824606    3.402644
H      -3.894260    0.839997   -2.299186
