16

O       0.036651   -0.074861    0.054681
C       0.092136    1.127692    0.079652
C       1.369389    1.937945    0.044373
C       1.419833    2.890836   -1.186806
C       2.225866    4.131710   -0.732096
C       1.992695    4.190147    0.762331
O       0.616951    4.026909    1.137052
C       1.490250    2.892101    1.228604
H      -0.829824    1.750559    0.129124
H       2.214334    1.241296    0.053790
H       1.853386    2.398085   -2.058991
H       0.402864    3.192173   -1.452322
H       3.298997    4.003004   -0.917501
H       1.909259    5.043309   -1.247543
H       2.570815    4.854765    1.399028
H       1.659408    2.508357    2.231187
