14

O      -0.151562    1.341847   -0.164950
C      -0.006958   -0.048737   -0.111779
C       0.831338   -0.553113   -1.229285
N       1.486146   -0.952397   -2.093091
C       0.601790   -0.521903    1.213636
O       1.411703    0.445492    1.867941
C       0.185553    0.026014    2.520816
C      -0.864572    0.986436    2.707757
C      -1.758571    1.752406    2.947356
H       0.591074    1.714850    0.332830
H      -1.004099   -0.492211   -0.224971
H       1.009018   -1.532436    1.193498
H       0.372940   -0.609855    3.385455
H      -2.547726    2.439922    3.131430
