20

C      -0.048860    1.529327    0.026767
C       0.132964    0.035088   -0.025925
N      -0.525134   -0.819934    0.997847
C       0.953635   -0.734821    0.939295
C       1.547990   -1.970545    0.254827
O       1.207140   -3.172181    0.920437
C       1.090196   -1.879086   -1.214066
C      -0.375623   -2.003948   -1.550869
C       0.241441   -0.638459   -1.390852
H       0.721863    2.037526   -0.562923
H      -1.023920    1.822972   -0.378517
H       0.016812    1.900512    1.054983
H      -0.869145   -0.236114    1.756931
H       1.481345   -0.273330    1.768729
H       2.641402   -1.915839    0.287281
H       0.259020   -3.109879    1.093701
H       1.803180   -2.182372   -1.972538
H      -0.612466   -2.328271   -2.558694
H      -1.073338   -2.330295   -0.790428
H       0.344879    0.011355   -2.252809
