13

O       0.177978    1.227034    0.488734
C      -0.080252   -0.038071    0.132154
N      -1.226469   -0.525090    0.398197
C      -1.507124   -1.851597    0.083185
N      -2.508208   -2.175443   -0.621365
N      -0.672402   -2.824802    0.707835
C       0.569585   -2.837676    0.409996
C       1.273532   -1.857899   -0.437182
N       1.000128   -0.611383   -0.563794
H       1.042967    1.457175    0.124856
H      -2.589082   -3.192754   -0.661190
H       1.187212   -3.642419    0.817336
H       2.163044   -2.218044   -0.959593
