23

C      -0.186838    1.503758   -0.005716
C       0.017500   -0.010060   -0.046412
C       1.225418   -0.463266   -0.920876
C       2.056175   -0.724291    0.365465
C       0.749845   -0.609556    1.189070
C       0.632607   -0.104296    2.656506
C      -0.766103   -0.787658    2.703026
C       0.175398   -1.809273    2.002816
C       1.230800   -1.473215    3.095777
H       0.746100    2.024877    0.238539
H      -0.529182    1.877369   -0.977217
H      -0.931206    1.790414    0.744828
H      -0.929860   -0.499967   -0.295674
H       1.021130   -1.379213   -1.481105
H       1.619355    0.284386   -1.614648
H       2.594270   -1.674501    0.416962
H       2.767169    0.079785    0.580263
H       0.899192    0.883338    3.038005
H      -1.135245   -1.068681    3.693467
H      -1.559727   -0.345723    2.096492
H      -0.089236   -2.796887    1.618586
H       2.278598   -1.659968    2.850303
H       0.996449   -1.799347    4.113123
