18

C      -0.016658    1.508425    0.089521
C       0.041269    0.018130   -0.014745
C       0.035929   -0.760570   -1.117612
C       0.056768   -2.235406   -0.774040
C       0.435206   -2.243294    0.725849
C       0.067756   -0.830751    1.237866
C      -0.025961   -0.304736   -2.503958
O      -0.067058   -1.054496   -3.458669
H       0.860858    1.887223    0.628472
H      -0.065243    2.010352   -0.877951
H      -0.892143    1.814230    0.676601
H      -0.932034   -2.678060   -0.952129
H       0.756239   -2.795510   -1.400627
H      -0.059809   -3.038975    1.287384
H       1.513946   -2.396506    0.830851
H       0.768348   -0.444991    1.988032
H      -0.924720   -0.808109    1.713041
H      -0.029954    0.796230   -2.655149
