21

C      -0.059297    1.516036    0.197893
C       1.291248    0.837953    0.130608
C       2.123891    0.576621    1.366045
C       3.162110   -0.543586    1.131787
C       2.669811   -1.797099    0.443970
C       1.462333   -2.363221    0.496763
C       0.300210   -1.912037    1.343809
O      -0.484585   -0.799208    0.871721
C       0.029758    0.045369   -0.108822
H      -0.445660    1.765372    1.180360
H      -0.342023    2.203946   -0.591243
H       1.876583    1.044127   -0.763504
H       2.661519    1.486261    1.660961
H       1.464391    0.332956    2.203393
H       3.975420   -0.135104    0.518433
H       3.635676   -0.809432    2.088214
H       3.413283   -2.280432   -0.188438
H       1.292451   -3.251897   -0.106497
H      -0.410020   -2.738569    1.450520
H       0.655119   -1.667297    2.353902
H      -0.168853   -0.279130   -1.129995
