17

C      -0.310291    1.516530    0.095374
C       0.197594    0.081938   -0.078179
C       0.802468   -0.488795    1.201026
C      -0.099923   -1.098531    2.251018
C       0.804818   -2.009644    1.450285
C       0.254220   -2.886307    0.455031
N      -0.189912   -3.591992   -0.346594
C       1.981975    0.194610    1.678122
N       2.925431    0.750755    2.049974
H       0.499247    2.191306    0.389488
H      -0.732288    1.885506   -0.843169
H      -1.090535    1.571866    0.861308
H      -0.618937   -0.575649   -0.392181
H       0.951758    0.041238   -0.871608
H       0.145484   -0.958089    3.296263
H      -1.158294   -1.119094    2.019250
H       1.675446   -2.406125    1.960617
