19

C       0.073149    1.587054   -0.059693
C       0.095149    0.063955    0.004868
N       0.986461   -0.455135   -1.071023
C       1.619445   -1.411163   -0.516594
C       3.044395   -1.212977   -0.054016
C       2.238172   -1.006620    1.283954
N       1.143394   -1.912196    0.811664
C       0.746009   -0.573207    1.255669
C       0.049874   -0.443980    2.587720
H       1.089573    1.988936   -0.022170
H      -0.392265    1.922458   -0.989930
H      -0.498774    1.997985    0.779082
H      -0.936417   -0.317832   -0.060305
H       3.671040   -2.100762    0.067267
H       3.580213   -0.390988   -0.526090
H       2.704720   -1.196310    2.250128
H       0.086750    0.589380    2.947116
H      -1.002376   -0.732861    2.492111
H       0.506779   -1.085923    3.344829
