14

C      -0.184520   -1.213873    0.218089
C      -0.078717   -0.023623    0.095012
C       0.018075    1.424255   -0.043486
N      -0.635215    2.141860    1.072006
C       0.377432    2.579001    1.908140
N       1.573208    2.567955    1.462203
C       1.480589    2.024995    0.093733
C       2.554062    1.075446   -0.202619
N       3.403445    0.339211   -0.466374
H      -0.254212   -2.269094    0.321636
H      -0.417246    1.730974   -0.998435
H      -1.439502    1.694208    1.490007
H       0.118947    2.959273    2.891928
H       1.575667    2.857945   -0.615000
