20

C       0.334089    1.425166    0.047008
C      -0.164816   -0.004838    0.234389
N       0.608865   -0.686936    1.275357
C       0.563866   -2.148727    1.191119
C       1.788295   -1.396609    0.753258
C       2.579548   -1.967911    1.961956
O       2.617566   -1.173740    3.156941
C       1.423138   -1.819424    3.674299
C       1.311075   -2.720423    2.421138
H       1.371551    1.437077   -0.301841
H      -0.278302    1.953316   -0.690160
H       0.291860    1.970441    0.993656
H      -1.211023    0.003084    0.562342
H      -0.136925   -0.544800   -0.729395
H      -0.195826   -2.642538    0.596596
H       2.157350   -1.173576   -0.241547
H       3.531188   -2.449193    1.720683
H       1.643273   -2.361285    4.601677
H       0.609044   -1.107098    3.829997
H       1.284436   -3.801016    2.547570
