21

C       0.324329    1.718512    0.078391
C       0.483813    0.204038   -0.089201
C       0.578011   -0.543290    1.246277
C      -0.691206   -0.487024    2.140991
C      -0.638637   -1.793969    2.893403
C       0.255908   -2.637278    2.379232
C       0.932201   -2.067944    1.147349
C       0.358571   -2.738285   -0.092676
O       1.009355   -3.309027   -0.929554
H       1.162942    2.142753    0.642102
H       0.287963    2.220719   -0.892929
H      -0.596253    1.969444    0.615600
H      -0.357957   -0.185855   -0.676257
H       1.385627   -0.003271   -0.678668
H       1.396629   -0.096196    1.824272
H      -0.695098    0.385090    2.804002
H      -1.610078   -0.416913    1.540045
H      -1.274205   -2.005924    3.746467
H       0.455522   -3.642083    2.733890
H       2.013572   -2.234002    1.120157
H      -0.752581   -2.683702   -0.166802
