19

C      -0.010316    1.458854    0.054181
N      -0.023573    0.006850    0.022431
C      -1.359808   -0.544539   -0.163041
C      -1.270350   -2.039648   -0.481242
C      -0.334425   -2.738193    0.457004
C       0.527529   -2.063119    1.228642
C       0.643094   -0.553525    1.186583
C       1.383515   -2.741671    2.148096
N       2.089691   -3.259113    2.906953
H       1.021322    1.817618    0.128830
H      -0.440213    1.852194   -0.871956
H      -0.578661    1.882475    0.904217
H      -1.997045   -0.393412    0.730963
H      -1.840875   -0.013340   -0.990058
H      -2.264855   -2.498944   -0.425217
H      -0.923166   -2.185164   -1.513349
H      -0.366363   -3.822297    0.507784
H       1.703205   -0.273884    1.155409
H       0.246131   -0.143338    2.139085
