22

C      -0.118756    1.396973    0.529272
C      -0.059826   -0.087613    0.157966
C      -1.420380   -0.643916   -0.222495
C      -1.592302   -2.172965   -0.342991
C      -2.701412   -1.994690    0.715385
C      -2.601213   -2.767337    2.018574
C      -3.592713   -2.266063    3.072613
O      -2.370254   -0.590888    0.872993
H       0.861945    1.768556    0.840807
H      -0.453514    2.004751   -0.318744
H      -0.822091    1.553706    1.351972
H       0.625515   -0.245607   -0.685858
H       0.332902   -0.669476    1.001043
H      -1.817563   -0.096112   -1.090894
H      -1.900795   -2.556394   -1.316580
H      -0.729958   -2.743235    0.013532
H      -3.715110   -2.096964    0.298347
H      -2.774330   -3.830520    1.803251
H      -1.575488   -2.681736    2.398228
H      -3.434684   -1.201065    3.264668
H      -4.627627   -2.396572    2.737191
H      -3.476441   -2.805948    4.017020
