18

C      -0.053770    1.515145   -0.013006
C       0.084722   -0.002602    0.003819
N       0.635919   -0.482356   -1.261017
C       0.776833   -1.839142   -1.448863
N       0.237391   -2.744041   -0.661012
O       0.581114   -3.979191   -1.226911
C       1.308392   -3.761950   -2.340866
C       1.480382   -2.433523   -2.549944
N       2.205908   -1.698586   -3.506620
H       0.920703    2.002273   -0.137869
H      -0.702770    1.840167   -0.831547
H      -0.480421    1.869360    0.929392
H       0.700510   -0.325269    0.857297
H      -0.892301   -0.477504    0.135071
H       1.447713    0.030796   -1.582947
H       1.638068   -4.641468   -2.872119
H       2.687503   -2.296285   -4.166879
H       1.604713   -1.067413   -4.027670
