18

C      -0.056718    1.536653   -0.054295
C       0.001882    0.034754    0.092510
N       1.252437   -0.753589   -0.167811
C       2.425298    0.060431   -0.157454
O       3.120880    0.308110   -1.092450
O       2.686935    0.533950    1.102518
C       1.694495    0.088654    2.029278
C       0.683232   -0.692990    1.194818
C       0.112710   -1.956690    1.787046
H       0.781114    2.048008    0.424299
H      -0.060722    1.815435   -1.112571
H      -0.984372    1.908540    0.392896
H      -0.855543   -0.476083   -0.341174
H       2.169421   -0.560526    2.772598
H       1.273992    0.959441    2.542979
H      -0.504320   -1.728723    2.663409
H      -0.510527   -2.478874    1.057290
H       0.912280   -2.635842    2.100892
