15

O      -0.117396    1.350045   -0.189338
C      -0.033946   -0.039119   -0.056826
C      -0.387771   -0.683115    1.263513
C      -1.348644   -0.746534    0.099101
C      -2.677980    0.013727    0.061675
O      -3.546040   -0.890071   -0.669897
C      -2.781517   -1.968794   -0.959617
N      -1.568536   -2.002478   -0.586428
H       0.615387    1.743934    0.295459
H       0.715674   -0.529282   -0.675675
H       0.120641   -1.599075    1.542344
H      -0.652160   -0.020840    2.082635
H      -3.119617    0.187065    1.047520
H      -2.614156    0.960673   -0.479178
H      -3.292799   -2.748192   -1.512600
