15

C      -0.863262    0.905197    0.611859
N      -0.229607   -0.343652    0.224842
N      -0.278182   -0.761702   -1.071128
C       0.456906   -1.858619   -1.051331
N       0.969673   -2.192010    0.161998
C       0.508801   -1.223207    0.933902
N       0.828554   -1.116040    2.288318
C      -0.048082   -0.854748    3.316278
O      -1.200589   -0.517572    3.189196
H      -0.163728    1.509887    1.194724
H      -1.118607    1.425624   -0.309963
H      -1.751541    0.718120    1.214838
H       0.627447   -2.442442   -1.943270
H       1.690926   -1.583196    2.531969
H       0.448469   -0.975358    4.296974
