19

C       0.028025    1.496536   -0.109765
N       0.010366    0.039223    0.030417
C      -1.140424   -0.572107    0.827503
C      -0.211625   -1.803425    1.013915
C       0.683608   -0.553716    1.286936
C       2.156537   -0.469370    1.543611
C      -0.493280   -0.000950    2.082952
N      -0.665254    0.698568    3.117333
O      -2.037469    1.016024    3.297924
H       1.011063    1.796680   -0.486103
H      -0.716104    1.781371   -0.860099
H      -0.177382    2.053446    0.817017
H      -2.171701   -0.530470    0.485687
H      -0.417209   -2.461982    1.858704
H       0.024937   -2.328410    0.086724
H       2.714667   -0.920339    0.717876
H       2.475880    0.571496    1.654280
H       2.411454   -0.998258    2.466765
H      -2.013418    1.524362    4.115390
