21

C      -0.045459    1.056091   -0.541348
O      -0.462420    0.103790    0.428598
C      -1.203997   -0.919726   -0.046717
N      -1.614281   -1.812785    0.738651
C      -2.412678   -2.918482    0.232177
C      -2.557091   -3.055467   -1.272389
C      -3.730002   -3.748117   -1.875125
N      -3.536733   -2.317279   -2.083042
C      -4.491485   -1.425377   -1.437503
H       0.536096    1.806846   -0.004949
H       0.586303    0.597284   -1.311948
H      -0.902115    1.543792   -1.022875
H      -1.392011   -0.873359   -1.127649
H      -1.958959   -3.844452    0.611357
H      -3.397034   -2.867834    0.712560
H      -1.601864   -3.165638   -1.786503
H      -3.613569   -4.384486   -2.748659
H      -4.523863   -4.056779   -1.194264
H      -4.890229   -1.791156   -0.478922
H      -4.025551   -0.450373   -1.263676
H      -5.338418   -1.278691   -2.115447
