17

C       0.041380    1.528969    0.018591
C      -0.049732    0.035354   -0.040060
C      -0.887072   -0.813808    0.837519
N       0.578449   -0.904396    0.989775
C       1.038007   -1.795410   -0.138492
C       0.472902   -0.822279   -1.173836
C       0.056792   -0.944693   -2.571304
O       1.279745   -0.282661   -2.202602
H       0.995833    1.874682   -0.388460
H      -0.762298    1.993093   -0.564733
H      -0.045522    1.875385    1.052108
H      -1.374056   -0.333937    1.681654
H      -1.430165   -1.663554    0.426620
H       2.128995   -1.836319   -0.170403
H       0.629024   -2.810544   -0.099946
H       0.182307   -1.891740   -3.094606
H      -0.723866   -0.295548   -2.966250
