15

N       0.108942    1.363990    0.159796
C      -0.021966   -0.020405    0.047138
C      -1.197666   -0.704209    0.020488
C      -1.214385   -2.145757   -0.003059
N      -2.297763   -2.842158   -0.025515
C       0.152885   -2.716783   -0.012411
O       0.215853   -4.063656   -0.033857
N       1.258992   -2.057556    0.004648
N       1.167969   -0.695001   -0.006511
H       0.770982    1.765371   -0.493622
H      -0.779276    1.841724    0.094778
H      -2.142825   -0.176629    0.000330
H      -2.067610   -3.835785   -0.052013
H       1.151638   -4.306977   -0.035814
H       2.016376   -0.233091    0.277218
