21

C       0.141277    1.346867   -0.181712
N      -0.110198   -0.078626   -0.000970
C       0.603607   -0.613079    1.153340
C      -1.524329   -0.444768    0.000619
C      -2.268759    0.164211    1.139923
N      -2.791429    0.670259    2.038889
C      -2.239131   -0.129917   -1.304021
C      -1.942560   -0.975175   -2.512789
C      -3.278594   -1.090845   -1.824914
H       1.220990    1.506705   -0.248972
H      -0.305024    1.694669   -1.116171
H      -0.246508    1.967179    0.645038
H       0.286795   -0.166584    2.111796
H       0.451484   -1.695673    1.213708
H       1.674450   -0.428158    1.028827
H      -1.563675   -1.531156    0.149622
H      -2.438330    0.922950   -1.470791
H      -1.895816   -0.485823   -3.478833
H      -1.231394   -1.784670   -2.390572
H      -3.479190   -1.986740   -1.246552
H      -4.153002   -0.675536   -2.312298
