16

C       0.065383    1.494581    0.101033
C       1.295582    0.618215   -0.100084
O       2.212222    0.396023    0.953378
C       1.971969   -0.662777    1.774611
N       0.924493   -1.358257    1.924414
C      -0.245434   -0.985097    1.165355
C      -0.717837   -1.910440    0.009914
O      -0.710264   -0.792266   -0.923739
C      -0.054718    0.012785    0.040381
H      -0.094812    1.983050    1.057731
H      -0.230345    2.073259   -0.768072
H       1.797429    0.664749   -1.060033
H       2.860464   -0.864736    2.368902
H      -1.058206   -0.745039    1.858250
H       0.016621   -2.675431   -0.263730
H      -1.713508   -2.351893    0.099508
