16

O      -0.863567    0.847595   -0.381579
C       0.174394    0.891645    0.227925
C       1.204606    1.968047    0.051581
C       1.028600    2.934271   -1.096073
C       1.229470    2.237622   -2.460202
C       1.147405    3.180015   -3.572357
N       1.082690    3.941193   -4.439243
C       1.963497    2.342994    1.266621
O       2.540016    1.483975    0.298392
H       0.463765    0.120062    0.974122
H       0.022236    3.360016   -1.048947
H       1.745142    3.753255   -0.994784
H       2.209913    1.749550   -2.483935
H       0.469910    1.462117   -2.597946
H       2.373285    3.350274    1.317266
H       1.727536    1.881964    2.225004
