27

C       0.701672    1.606313   -0.218114
C       0.153025    0.181012   -0.076187
C       0.576175   -0.728839   -1.265286
C       0.957761   -2.080939   -0.642751
C       1.558669   -1.729335    0.737187
C       1.546160   -2.937148    1.683348
C       3.009450   -1.233024    0.582927
C       0.581627   -0.608574    1.212913
C       1.058317    0.241939    2.392036
H       1.796860    1.626276   -0.235593
H       0.354068    2.050165   -1.157665
H       0.369662    2.258983    0.595287
H      -0.939953    0.264304   -0.062604
H      -0.210864   -0.821619   -2.019495
H       1.442111   -0.291165   -1.775060
H       0.059507   -2.694009   -0.495108
H       1.643663   -2.662784   -1.267709
H       2.173729   -3.747205    1.294464
H       1.929998   -2.677343    2.676396
H       0.532049   -3.332454    1.809188
H       3.089393   -0.369987   -0.084064
H       3.438759   -0.945733    1.547772
H       3.639310   -2.028169    0.168389
H      -0.316520   -1.140737    1.554429
H       1.929528    0.853308    2.141192
H       0.268155    0.920282    2.731219
H       1.329883   -0.389381    3.244860
