16

O       0.163388    1.448989   -0.082063
C       0.119142    0.055633   -0.075700
C       0.059158   -0.669743    1.276499
N      -1.428502   -0.245052    1.462574
C      -1.792360   -1.693302    1.786839
C      -0.727932   -1.909295    0.717347
C      -0.188092   -3.172960    0.143641
O      -0.560218   -4.268613    0.485898
C      -1.252322   -0.634091   -0.035991
H      -0.481788    1.751705    0.570846
H       0.842642   -0.307752   -0.808513
H       0.745661   -0.662774    2.125111
H      -1.554984   -1.983415    2.813919
H      -2.826666   -1.948859    1.541267
H       0.596820   -3.047736   -0.637441
H      -2.099649   -0.585434   -0.722393
