17

C      -0.040937    1.467417    0.133463
C      -0.096320   -0.021200   -0.037786
C       0.351246   -0.786789   -1.307672
C      -0.419404   -1.939564   -0.648755
C       0.090459   -2.008504    0.851663
O       0.673360   -0.703141    0.988807
C      -1.369695   -1.709132    1.256424
O      -2.152095   -2.120415    2.060186
C      -1.432776   -0.877782   -0.014309
H       0.999489    1.807568    0.106493
H      -0.590431    1.969989   -0.667189
H      -0.472161    1.761481    1.094718
H      -0.159043   -0.435400   -2.207755
H       1.426409   -0.881889   -1.478142
H      -0.739168   -2.856605   -1.136737
H       0.716731   -2.791335    1.271413
H      -2.333330   -0.505309   -0.493839
