16

C      -0.088779    1.515234   -0.005649
C      -0.066930   -0.014890    0.005268
C       0.755094   -0.559638    1.176616
N       0.793813   -2.013771    1.214344
N      -0.249775   -2.765262    1.612664
N       0.040092   -3.978859    1.519529
O       1.360931   -4.088948    1.022438
C       1.845688   -2.823188    0.821870
O       2.929000   -2.523602    0.407959
H       0.921268    1.927633   -0.101585
H      -0.681724    1.888485   -0.844712
H      -0.526794    1.914387    0.915565
H      -1.087080   -0.408657    0.076578
H       0.357199   -0.395117   -0.931011
H       1.800683   -0.247203    1.103383
H       0.357759   -0.207906    2.133489
