19

C       0.015491    1.489470    0.170683
C       1.355949    0.815984   -0.056303
C       1.710274    0.004004    1.190901
O       0.420374   -0.673045    1.178947
C       0.080091    0.006022   -0.036538
C      -0.367228   -0.739263   -1.263159
O       0.712644   -0.892930   -2.186604
C       1.331952    0.341495   -2.506072
C       2.161599    0.908519   -1.326940
H      -0.235535    1.874614    1.154827
H      -0.365339    2.072734   -0.662206
H       2.522178   -0.712535    1.018864
H       1.885171    0.545916    2.128373
H      -0.690554   -1.747538   -0.993676
H      -1.203183   -0.221420   -1.758890
H       1.981885    0.145367   -3.362905
H       0.571336    1.074497   -2.826232
H       2.489501    1.928084   -1.562773
H       3.063331    0.295593   -1.216618
