14

C      -0.027307    1.525293    0.024810
C      -0.006326    0.022598    0.002169
C      -0.038764   -0.722633   -1.178294
N      -0.021843   -2.055746   -1.248051
C       0.030222   -2.723604   -0.093990
C       0.066952   -2.107057    1.153889
C       0.047620   -0.723396    1.176689
F       0.081114   -0.080058    2.346522
H       0.865830    1.929800    0.512623
H      -0.072731    1.926079   -0.990687
H      -0.891023    1.904225    0.581255
H      -0.081406   -0.193961   -2.129097
H       0.043573   -3.808433   -0.161985
H       0.109000   -2.673427    2.076141
