15

C      -0.063269    1.593584   -0.035139
C       0.018635    0.063134   -0.050285
C      -1.290594   -0.531426    0.199645
N      -2.334646   -0.990207    0.388898
C       0.761623   -0.666334   -1.190413
C       2.196944   -0.364195   -1.197154
N       1.702900   -1.384863   -0.218692
C       1.106972   -0.624506    0.857206
O       1.350573   -0.609344    2.016956
H       0.910361    2.040096   -0.247419
H      -0.781171    1.948585   -0.779044
H      -0.388930    1.934094    0.950814
H       0.265018   -1.228986   -1.970324
H       2.805662   -0.811763   -1.975292
H       2.573818    0.580207   -0.816231
