17

C       0.045125    1.561041   -0.055343
C       0.075917    0.033450   -0.023339
N       0.800835   -0.519371   -1.167914
C       1.557519   -1.438049   -0.712988
N       2.338013   -2.298173   -1.428094
O       1.580044   -1.672939    0.632063
C       0.812631   -0.617886    1.213829
C       1.726459    0.337789    1.961284
O       2.923555    0.359886    1.855648
H       1.057085    1.976970   -0.040996
H      -0.437004    1.887965   -0.979813
H      -0.519353    1.972523    0.788193
H      -0.960782   -0.331339   -0.039628
H       2.495861   -2.012852   -2.381851
H       3.154593   -2.639183   -0.943974
H       0.103026   -1.048684    1.928661
H       1.183227    1.044027    2.629569
