17

O       0.101094    1.308856    0.211458
C       0.063922   -0.075471    0.023594
C      -1.389201   -0.552672   -0.191736
C      -1.228640   -2.023157   -0.634003
C      -0.682892   -1.265685   -1.861308
O      -1.639853   -0.198743   -1.590672
C       0.624714   -0.618143   -1.353576
C       1.150709    0.443146   -2.288056
O       1.809482    1.393262   -1.933197
H       0.894894    1.650170   -0.224733
H       0.533255   -0.603125    0.867286
H      -2.144443   -0.192063    0.504303
H      -0.565061   -2.685103   -0.071326
H      -2.188381   -2.496164   -0.840659
H      -0.715683   -1.650600   -2.881858
H       1.434954   -1.343216   -1.204876
H       0.920971    0.290895   -3.365351
