21

C       0.037841    1.591735   -0.065835
C      -0.057354    0.060112   -0.039226
C       0.577150   -0.569398   -1.288065
C       0.587971   -0.508353    1.228016
C       0.010182   -0.177889    2.643467
O      -1.348631    0.192768    2.516903
C       0.200592   -1.665048    3.075406
C       0.410739   -1.996172    1.587137
O       0.360439   -3.008215    0.949687
H       1.084059    1.921772   -0.064845
H      -0.432737    1.990793   -0.970682
H      -0.464546    2.032246    0.799190
H      -1.118464   -0.212417   -0.015394
H       1.637101   -0.297472   -1.367829
H       0.509690   -1.659552   -1.258385
H       0.076495   -0.214016   -2.194745
H       1.666117   -0.290525    1.226876
H       0.574520    0.561544    3.222825
H      -1.733864    0.232635    3.397862
H       1.108079   -1.841543    3.662345
H      -0.647788   -2.147297    3.567802
