18

N      -0.754033    0.996119    0.204169
C      -0.267040   -0.357622   -0.028711
C       0.767863   -0.462505   -1.189512
O       1.203390   -1.782986   -1.442953
C       0.216037    0.163699   -2.409402
N      -0.262532    0.624143   -3.355671
C       0.319001   -0.968805    1.236886
C       0.944007   -0.131462    2.291440
N      -0.364579   -0.773039    2.518067
H       0.009093    1.665960    0.224112
H      -1.384394    1.286765   -0.534968
H      -1.136849   -0.963087   -0.321904
H       1.667729    0.091990   -0.897659
H       0.457893   -2.290769   -1.784748
H       0.705151   -1.972561    1.087296
H       1.765476   -0.532265    2.877983
H       0.962814    0.947267    2.165508
H      -1.081337   -0.061299    2.374498
