17

O      -0.037519    1.343736   -0.023699
C       0.049354   -0.031484   -0.039798
C       0.875255   -0.904592   -0.981554
C      -0.049551   -2.060871   -0.505639
C      -1.112207   -0.981378   -0.053926
C      -0.280637   -0.876579    1.209469
C       0.343467   -2.264485    1.001104
C      -0.375632   -3.340192    1.659477
C      -0.970834   -4.234984    2.199422
H       0.679043    1.689885    0.519888
H       0.682435   -0.639753   -2.024730
H       1.953971   -1.014110   -0.815383
H      -0.243514   -2.923885   -1.136391
H      -2.166841   -0.846843   -0.239013
H      -0.556618   -0.400622    2.141654
H       1.420218   -2.359869    1.192348
H      -1.494610   -5.024080    2.679204
