15

N       0.084072    1.307110   -0.030526
C      -0.012089   -0.032074   -0.013751
N      -1.146971   -0.695104   -0.002104
H      -2.037076   -0.216684    0.006582
C      -1.146287   -2.097485   -0.004080
C      -2.229885   -2.915356    0.005932
O      -1.750003   -4.186398    0.000008
C      -0.302391   -4.067150   -0.013932
N       0.446287   -5.099547   -0.021894
N       0.034306   -2.746777   -0.015980
H       0.990463    1.734444    0.039237
H      -0.716420    1.910799    0.058346
H       0.877445   -0.652966   -0.028639
H      -3.296411   -2.762785    0.015712
H      -0.128467   -5.938914   -0.017019
