20

C       0.279098    1.566854   -0.196524
C      -0.049143    0.107186    0.114332
O       0.366914   -0.722865   -0.979549
C       1.129411   -1.821575   -0.507091
C       1.352835   -1.558787    0.967508
C       0.667853   -0.466266    1.304721
C       2.178344   -2.397902    1.853159
C       2.407477   -3.845093    1.567520
N       3.511845   -2.890975    1.427122
H       1.359727    1.703604   -0.296232
H      -0.199349    1.867602   -1.132870
H      -0.086667    2.221093    0.601819
H      -1.143050    0.012930    0.234716
H       0.585116   -2.766746   -0.672457
H       2.064838   -1.886164   -1.084952
H       0.609298   -0.029182    2.294080
H       2.163964   -2.090398    2.895739
H       2.503485   -4.540787    2.396452
H       1.959479   -4.269560    0.673390
H       3.660885   -2.674132    0.444662
