16

C      -0.059273    1.540485   -0.015533
C       1.480892    1.553117    0.013660
N       2.119333    1.390700    1.314239
C       1.649642    0.348535    1.875485
N       2.616464   -0.780513    1.848765
C       1.705904   -1.092495    0.637303
C       1.390223    0.015493   -0.485476
N      -0.059877    0.042469   -0.014942
C       0.454612   -0.480802    1.268987
H      -0.570464    2.008819    0.829086
H      -0.485713    1.905979   -0.953960
H       2.014694    2.292764   -0.584914
H       2.354847   -1.517055    2.515044
H       1.764037   -2.124011    0.286501
H       1.575247   -0.208385   -1.536163
H      -0.221205   -1.001383    1.948365
