11

N      -0.007765    1.300392   -0.067756
C      -0.018842   -0.048758    0.016253
N      -1.145753   -0.703281    0.039103
O      -1.090853   -2.078666    0.177372
N       0.063875   -2.774949    0.279146
C       1.176026   -2.128965    0.236669
F       2.274899   -2.847527    0.332907
C       1.309083   -0.691704    0.091849
O       2.351310   -0.064037    0.028467
H       0.886172    1.723986   -0.260078
H      -0.853227    1.793240   -0.299085
