21

C      -0.055262    1.489168   -0.016127
C      -0.007001   -0.019763   -0.025111
C       1.026025   -0.719059   -0.922235
C       0.384643   -2.087865   -1.278513
C      -0.690941   -2.230831   -0.208263
O      -0.021711   -2.167804    1.095508
C      -0.423272   -0.794633    1.223123
C      -0.572909   -0.278620    2.617092
C      -1.298763   -0.832205    0.002470
H       0.872761    1.916550    0.381299
H      -0.189220    1.878764   -1.032274
H      -0.881580    1.871585    0.590718
H       1.224916   -0.118075   -1.815410
H       1.978943   -0.851284   -0.400768
H      -0.074622   -2.069462   -2.274032
H       1.098263   -2.916047   -1.247873
H      -1.349184   -3.099031   -0.277734
H       0.391296   -0.308220    3.137581
H      -0.930794    0.753642    2.625555
H      -1.279419   -0.896075    3.180700
H      -2.300453   -0.476676   -0.200936
