23

C      -1.530903   -0.338950   -0.188126
C      -0.041588   -0.086627    0.083708
C       0.397579   -0.769601    1.385794
C       0.791109   -0.512442   -1.140094
C       2.293486   -0.250333   -1.055889
O       2.469800    1.080732   -0.628060
C       3.156601   -1.341122   -0.355369
O       3.676495   -1.795796   -1.618350
C       3.080911   -0.689299   -2.320359
H      -1.865710    0.174633   -1.095764
H      -1.732807   -1.409284   -0.318559
H      -2.148511    0.014798    0.643954
H       0.105193    0.992100    0.209937
H       0.328428   -1.861721    1.308485
H       1.426028   -0.509081    1.651835
H      -0.243495   -0.459234    2.217735
H       0.642546   -1.580721   -1.346150
H       0.412131    0.027382   -2.017818
H       3.413664    1.267905   -0.588514
H       3.941132   -0.919922    0.292170
H       2.637606   -2.138113    0.185718
H       2.495817   -1.013507   -3.189177
H       3.826962    0.051380   -2.646655
