20

C      -0.070167    1.542962   -0.035653
C       0.125155    0.042323    0.023870
C       1.439431   -0.667621   -0.185648
C       2.590679    0.061459    0.472828
N       3.161161   -0.706910    1.587372
C       1.893823    0.002682    1.808561
C       1.889388    0.989415    2.948508
O       3.146612    1.611285    3.096047
C       0.719386   -0.723613    1.183773
H       0.780357    2.086083    0.381247
H      -0.198144    1.870632   -1.073150
H      -0.966730    1.840797    0.519009
H      -0.700317   -0.508650   -0.427494
H       1.546504   -1.475279   -0.902068
H       3.195461    0.857358    0.055388
H       3.036798   -1.710135    1.470794
H       1.146200    1.775263    2.772892
H       1.586564    0.461834    3.871188
H       3.793685    0.915742    2.908408
H       0.210017   -1.574129    1.625024
