18

C      -0.109227    1.539542    0.019300
C       0.049845    0.023609    0.004172
C       1.067457   -0.594640   -0.990847
C       2.391773   -0.067991   -0.404043
O       2.145775   -0.064117    1.018824
C       0.838409   -0.598213    1.167340
O       0.840087   -1.984963    0.874558
C       0.964436   -2.068755   -0.563741
H       0.832627    2.046032    0.242014
H      -0.478884    1.905436   -0.944334
H      -0.833335    1.840286    0.783655
H      -0.926735   -0.461303   -0.091105
H       0.919134   -0.404673   -2.053902
H       3.240144   -0.724367   -0.630647
H       2.638147    0.946935   -0.737046
H       0.511800   -0.449737    2.195396
H       0.081266   -2.568847   -0.981971
H       1.855081   -2.654634   -0.818791
