16

N      -0.032916    1.291212   -0.004960
C       0.010931   -0.076483    0.192208
O       1.035052   -0.708599    0.358921
N      -1.224611   -0.689660    0.161909
C      -2.515405   -0.300340   -0.421491
C      -2.925294   -1.797305   -0.384630
C      -1.444283   -2.127535    0.014102
C      -0.677895   -2.783192   -1.053282
N      -0.138726   -3.328199   -1.917768
H       0.829653    1.756334    0.232694
H      -0.870335    1.792041    0.248557
H      -3.110661    0.374382    0.203185
H      -2.432787    0.121968   -1.429996
H      -3.633535   -2.041873    0.406326
H      -3.257085   -2.227598   -1.327384
H      -1.312195   -2.695676    0.939578
