19

C      -0.053924    1.525308    0.036979
C       0.062756    0.023588    0.034941
C       1.012533   -0.770889   -0.905573
C       0.708192   -1.913542    0.105296
C       0.689468   -0.808465    1.199939
C      -0.812972   -2.101668   -0.121789
N      -1.227232   -0.670671   -0.240212
C      -1.140479   -2.874234   -1.327400
N      -1.383983   -3.505783   -2.264030
H       0.922392    1.990997    0.198319
H      -0.457335    1.879621   -0.916404
H      -0.723532    1.868626    0.834579
H       0.701903   -0.898082   -1.944609
H       2.046641   -0.428863   -0.843911
H       1.308259   -2.818575    0.179767
H       1.695282   -0.483595    1.474523
H       0.083037   -0.971265    2.097252
H      -1.281924   -2.604821    0.731391
H      -1.906151   -0.450232    0.482765
