19

C      -0.105181    1.566813   -0.080779
C       0.054549    0.068569    0.067722
C       1.352929   -0.709421   -0.195309
C       2.627166    0.066376   -0.099533
C       2.836051    0.526582    1.136277
C       1.750032    0.072698    2.095641
O       1.184091    1.095206    2.910187
C       0.757880   -0.668556    1.187811
O       0.154483   -1.813405    1.712101
H       0.826679    2.104712    0.115132
H      -0.413093    1.820508   -1.101211
H      -0.876968    1.952069    0.595621
H      -0.814454   -0.496892   -0.262031
H       1.294633   -1.600010   -0.810449
H       3.269898    0.245492   -0.954723
H       3.665545    1.143440    1.462692
H       2.147820   -0.653785    2.816312
H       0.888936    1.802083    2.327316
H      -0.479880   -1.525305    2.378683
