19

O       0.306250    0.062573   -0.786612
C       0.156039    1.196690   -0.386237
N      -1.009360    1.764209    0.043072
C      -0.867556    3.100728    0.599066
C       0.467971    3.568439   -0.019009
C       1.256798    2.268141   -0.227533
N       2.022367    1.927552    0.970234
C       3.010727    0.864021    0.814440
C       3.441921    2.281468    0.955710
H      -1.826327    1.190567    0.182707
H      -1.707012    3.741114    0.311725
H      -0.812383    3.077290    1.694961
H       0.278860    4.044132   -0.985901
H       0.997277    4.278296    0.619078
H       1.883095    2.285135   -1.132658
H       3.093282    0.177602    1.651703
H       3.099222    0.399266   -0.163839
H       3.832959    2.776400    0.068068
H       3.845560    2.647591    1.895211
