19

C      -0.135495    1.543962    0.007068
C       0.051568    0.029036    0.009893
C       1.072895   -0.578492   -0.980411
C       2.424565   -0.027895   -0.494784
C       2.208677   -0.037074    1.033875
O       2.989707    0.302749    1.881836
C       0.788341   -0.581468    1.230286
C       0.857644   -2.056956    0.768435
O       1.032341   -1.977670   -0.658306
H       0.793476    2.086564    0.206145
H      -0.523644    1.886729   -0.957751
H      -0.854783    1.841167    0.776672
H      -0.916982   -0.460501   -0.136111
H       0.863344   -0.464629   -2.044176
H       3.263561   -0.668009   -0.778516
H       2.638469    0.987020   -0.844549
H       0.379894   -0.428578    2.227929
H       1.689587   -2.611969    1.217017
H      -0.076141   -2.585557    0.997760
