20

C       0.133012    1.548879   -0.007366
C      -0.048859    0.051235    0.051225
C      -1.350240   -0.519287   -0.503699
C      -2.122187   -1.357013    0.539467
N      -1.364759   -2.340278    1.310631
C      -0.324224   -3.124521    0.656778
C       0.044832   -2.026849    1.597864
C       0.651525   -0.756087    1.072842
O       1.121129   -0.716522   -0.281482
H       1.101461    1.839824    0.407374
H       0.083226    1.901444   -1.043797
H      -0.656639    2.057751    0.556389
H      -2.004375    0.290641   -0.843056
H      -1.113261   -1.119072   -1.388325
H      -2.574924   -0.678061    1.273142
H      -2.946441   -1.884415    0.047425
H      -0.253761   -4.159803    0.979314
H      -0.097278   -2.953268   -0.391612
H       0.351619   -2.281460    2.609722
H       1.305226   -0.242276    1.777553
