21

C       0.754951   -0.996046   -1.250064
C       0.162121   -0.394470    0.025561
O       0.363610    1.020650    0.068733
C      -1.342168   -0.603981    0.113156
C      -1.854518   -2.045717    0.241110
O      -1.401668   -2.557852    1.503237
C      -2.577649   -1.736214    1.482432
C      -2.115238   -0.269359    1.460553
C      -1.353471    0.240134    2.676627
H       1.833825   -0.809221   -1.301412
H       0.607815   -2.080426   -1.281565
H       0.291267   -0.551033   -2.136590
H       0.633781   -0.870537    0.896624
H       1.312051    1.183956    0.074109
H      -1.818530   -0.087527   -0.726789
H      -2.065810   -2.771402   -0.536313
H      -3.482639   -2.167625    1.895681
H      -2.955431    0.393111    1.230596
H      -0.603741   -0.488345    2.997247
H      -0.844488    1.179409    2.446873
H      -2.036694    0.410359    3.516023
