21

C       0.021332    1.497001   -0.154630
O       1.387424    1.536259    0.322007
C       1.442584    0.094385    0.435552
C       0.017676   -0.011273   -0.057261
C      -0.844796   -0.985577   -0.295931
C      -0.570947   -2.471357   -0.113961
C      -1.961058   -3.131829   -0.219878
C      -2.721595   -2.219494   -1.198015
C      -2.269937   -0.800165   -0.796263
H      -0.665399    2.032279    0.517235
H      -0.077225    1.922587   -1.164148
H       2.217711   -0.340892   -0.211931
H       1.628567   -0.232620    1.469205
H       0.079334   -2.834407   -0.922073
H      -0.056018   -2.695677    0.825744
H      -1.914943   -4.173747   -0.547645
H      -2.455158   -3.117932    0.759104
H      -2.404873   -2.433740   -2.225883
H      -3.806187   -2.350220   -1.156553
H      -2.905703   -0.419831    0.015429
H      -2.341338   -0.075973   -1.614172
