16

O      -0.078347    1.358734    0.042857
C       0.029156   -0.010892    0.037560
C       0.720058   -0.952459    1.052989
C       0.050208   -1.885686    0.017021
C      -1.203858   -0.966508   -0.014589
N      -1.738885   -1.034984   -1.366296
C      -0.612826   -0.906256   -2.181679
O      -0.574833   -0.752487   -3.377151
C       0.510279   -0.952715   -1.156294
H       0.802575    1.747028   -0.000816
H       1.812715   -0.949930    1.061589
H       0.311704   -0.965044    2.068071
H       0.048680   -2.972675   -0.005464
H      -1.937601   -0.988598    0.789403
H      -2.589920   -0.559835   -1.627326
H       1.540666   -0.948403   -1.505493
