20

C      -0.138094    0.948811   -0.503032
C       0.107103   -0.233680    0.429258
O       0.691939    0.161562    1.663111
C      -1.164542   -1.037592    0.713177
O      -1.657826   -1.555434   -0.515426
C      -2.841603   -2.310090   -0.407839
C      -3.353520   -2.593368   -1.819519
C      -2.610075   -3.573454    0.334790
N      -2.425437   -4.554402    0.916942
H       0.796598    1.482093   -0.694892
H      -0.557335    0.610127   -1.453728
H      -0.850784    1.653348   -0.053696
H       0.835230   -0.912787   -0.028429
H       0.161713    0.880040    2.025432
H      -0.930039   -1.848033    1.415727
H      -1.924882   -0.387784    1.181798
H      -3.602599   -1.745473    0.155937
H      -4.277983   -3.174343   -1.783231
H      -3.544023   -1.644257   -2.325300
H      -2.604565   -3.152503   -2.384544
