14

O      -0.107775    1.393786    0.011233
C       0.011587    0.033277    0.003332
C       1.183216   -0.652275   -0.007628
N       1.200447   -2.021989   -0.014941
C       0.063581   -2.846702   -0.012153
O       0.182755   -4.063122   -0.019347
C      -1.171381   -2.094685   -0.000482
C      -1.207607   -0.729135    0.006943
O      -2.343830   -0.000688    0.017890
H       0.770219    1.788410    0.008054
H       2.146892   -0.156195   -0.011064
H       2.079569   -2.517683   -0.023061
H      -2.086020   -2.677581    0.002163
H      -3.098454   -0.600729    0.019446
