13

O       0.089579    1.325953    0.090713
C       0.066173   -0.007291   -0.019764
C      -0.439549   -0.585598   -1.201813
N      -0.478733   -1.896234   -1.347407
C      -0.019409   -2.645812   -0.328198
C      -0.066048   -4.116728   -0.497722
O       0.312558   -4.907023    0.335278
C       0.477806   -2.058528    0.834778
N       0.522336   -0.734829    0.993165
H       0.465682    1.528852    0.960119
H      -0.803736    0.043306   -2.008434
H      -0.487166   -4.432735   -1.474775
H       0.843864   -2.679536    1.646016
