16

N       0.026863    1.368100    0.218713
C      -0.065328   -0.002751    0.094722
N      -1.184788   -0.595113    0.003100
C      -1.219361   -2.044012   -0.086693
C       0.126120   -2.667802   -0.349183
C       1.290493   -1.959029    0.285477
O       1.187862   -0.539037    0.119515
N       0.192752   -3.717733   -1.068180
O       1.504058   -4.211803   -1.180817
H       0.903025    1.763489   -0.086000
H      -0.794647    1.853895   -0.106109
H      -1.624506   -2.450155    0.854299
H      -1.918833   -2.350009   -0.871282
H       1.331920   -2.186533    1.360081
H       2.233215   -2.257180   -0.170341
H       1.389537   -4.948008   -1.790798
