16

C      -0.240930    1.465876    0.197359
N      -0.238825    0.011694    0.182478
C       0.934603   -0.567484    0.795461
C       0.798460   -2.051512    0.989134
N      -0.415401   -2.594796    1.035253
C      -0.397514   -3.909174    1.227335
N       0.694500   -4.660148    1.374454
N       1.869231   -4.044769    1.337409
N       1.940681   -2.746756    1.142805
H       0.584985    1.843042   -0.416709
H      -1.173489    1.832196   -0.239984
H      -0.133224    1.908227    1.204465
H      -1.070968   -0.362775    0.623179
H       1.821827   -0.385932    0.176792
H       1.181180   -0.142124    1.792336
H      -1.349548   -4.432066    1.271908
