13

O       0.056042   -0.094675   -0.001464
C      -0.011549    1.117348    0.009745
C       1.169103    1.971524    0.003472
C       1.336104    3.361266    0.013511
C       2.742291    3.536050   -0.001132
N       3.384760    2.369675   -0.018683
N       2.420063    1.447912   -0.015501
C       0.329646    4.349128    0.033683
C      -0.521031    5.201446    0.050524
H      -0.977549    1.657032    0.025577
H       3.293659    4.463525    0.000560
H       2.640103    0.463664   -0.026537
H      -1.271903    5.952393    0.064444
