15

O      -0.264025    1.287626    0.002169
C       0.036908   -0.092468    0.053757
C       0.691167   -0.551521   -1.185144
N       1.230862   -0.860934   -2.158592
C       0.888354   -0.432903    1.295687
C       0.157281   -0.110343    2.624506
N      -0.147407   -1.427466    3.209991
C       0.401704   -2.278067    2.453142
O       1.083580   -1.861516    1.348692
H       0.533729    1.768863   -0.247614
H      -0.925008   -0.608833    0.148380
H       1.871017    0.039329    1.205628
H       0.781891    0.463328    3.316147
H      -0.758134    0.464152    2.457732
H       0.397174   -3.352907    2.591746
