21

C       0.060005    1.438847   -0.236659
C      -0.026007   -0.061350    0.089052
C       0.696769   -0.386631    1.406068
C      -1.459213   -0.527782    0.101433
C      -2.592696   -0.154011    1.067736
C      -3.380400   -1.299339    0.384710
O      -3.610110   -0.800856   -0.964975
C      -2.209269   -0.980204   -1.169046
C      -2.014073   -1.948479   -0.052240
H       1.102512    1.768571   -0.291639
H      -0.421211    1.666147   -1.192709
H      -0.436737    2.035041    0.537054
H       0.486211   -0.610907   -0.714806
H       0.248555    0.157356    2.244968
H       0.645268   -1.455916    1.634035
H       1.752411   -0.100966    1.352850
H      -2.335219   -0.402133    2.100905
H      -3.043174    0.842428    1.010565
H      -4.251758   -1.776877    0.827536
H      -1.808992   -0.929102   -2.173555
H      -1.575413   -2.934257    0.022539
