17

O      -0.072873   -0.020731    0.008460
C       0.016206    1.186300    0.006533
C       1.256106    1.915546    0.000443
C       2.279483    2.560801   -0.005589
C       3.501399    3.306664   -0.013300
C       4.628214    3.265707   -1.102625
C       5.124286    4.271557   -0.024722
C       3.685538    4.861646   -0.003984
C       4.652705    3.249779    1.049265
H      -0.886946    1.830772    0.009365
H       5.172789    2.322942   -1.191738
H       4.361594    3.675536   -2.079697
H       6.059595    4.828617   -0.031246
H       3.353329    5.389743   -0.901047
H       3.374037    5.376235    0.908218
H       4.408623    3.645107    2.038133
H       5.198935    2.305864    1.112043
