11

O       0.000178   -0.067613    0.003390
C      -0.012812    1.129753    0.007013
C       1.146790    1.978451    0.001315
C       2.170829    2.606815   -0.004071
N      -1.258294    1.852403    0.018174
N      -2.452094    1.254554    0.024918
C      -3.258913    2.294063    0.033999
N      -2.591364    3.488198    0.032749
N      -1.330840    3.197726    0.022705
H       3.069853    3.175269   -0.008643
H      -4.333764    2.212608    0.041520
