15

O      -0.063221    1.328417    0.009622
C       1.217187    1.812817    0.000281
C       2.140916    0.824918   -0.013750
C       1.399615   -0.412656   -0.013691
C       0.045749   -0.032059    0.001103
C      -1.005475   -0.935857    0.005954
C      -0.664350   -2.284628   -0.004711
C       0.678055   -2.697159   -0.019573
C       1.717367   -1.775871   -0.024210
H       1.297741    2.888228    0.005445
H       3.212170    0.952357   -0.023049
H      -2.035754   -0.601193    0.017456
H      -1.451303   -3.030928   -0.001473
H       0.904688   -3.757951   -0.027563
H       2.750741   -2.105301   -0.035701
