19

C       0.032191    1.562025   -0.036418
C       0.081132    0.061335   -0.010850
C      -0.890563   -0.793163    0.802704
C       0.568387   -0.964269    1.056053
C       1.206526   -1.851692   -0.028389
C       0.841990   -3.318920   -0.241883
O       1.398349   -3.787084   -1.457378
C       0.671079   -0.834151   -1.062556
O       0.795067   -0.761231   -2.257963
H       1.004421    1.987563   -0.304521
H      -0.698958    1.914741   -0.771557
H      -0.257332    1.961700    0.940413
H      -1.439757   -0.219896    1.543648
H      -1.479527   -1.574947    0.333295
H       1.026102   -0.728990    2.008278
H       2.299926   -1.760236   -0.023029
H       1.255425   -3.945313    0.556401
H      -0.251477   -3.450553   -0.222365
H       1.191450   -3.135849   -2.139903
