19

C      -0.337620    1.559755    0.129986
C       0.152360    0.122888   -0.078049
C       0.790490   -0.468949    1.180017
C      -0.083327   -1.136805    2.207980
C       0.856525   -2.004485    1.395263
C       0.310503   -2.953079    0.396215
O       0.848710   -3.988402    0.089560
C       1.949949    0.239890    1.658734
C       2.921863    0.838013    2.039224
H       0.486661    2.217306    0.419372
H      -0.779723    1.951734   -0.790549
H      -1.097526    1.608049    0.916925
H      -0.688147   -0.505456   -0.387161
H       0.883847    0.092697   -0.893419
H       0.144975   -1.003765    3.258198
H      -1.141717   -1.205387    1.974377
H       1.756655   -2.361019    1.882018
H      -0.665086   -2.662464   -0.054454
H       3.779990    1.363185    2.379186
