22

C       0.388270    1.782613    0.537256
O       0.832473    0.516344    0.101686
C       0.682481   -0.490685    1.064754
C      -0.716597   -1.137246    1.302614
C      -0.027766   -2.538525    1.313690
C      -0.716471   -3.704167    0.622214
C       1.181893   -1.869194    0.643861
C       1.801467   -2.167541   -0.664311
N       2.545995   -2.373025    0.598308
H       0.928757    2.114244    1.437902
H       0.580582    2.491358   -0.271727
H      -0.688478    1.785400    0.761925
H       1.134708   -0.173070    2.020215
H      -1.275738   -0.838422    2.191394
H      -1.342728   -1.010352    0.414282
H       0.237962   -2.818436    2.339927
H      -0.999540   -3.443446   -0.403294
H      -0.059739   -4.579952    0.579644
H      -1.626396   -3.996957    1.157064
H       1.548282   -3.081713   -1.194186
H       2.061451   -1.322672   -1.294944
H       3.203882   -1.608573    0.738733
