19

C      -0.350777    1.425552   -0.585064
O      -0.282766    0.024171   -0.703715
C       1.005282   -0.487863   -0.432618
C       0.957106   -1.994691   -0.585391
C       0.898907   -2.650079   -1.977323
C       2.156708   -2.401951   -2.727495
C       2.158775   -3.501739   -1.669073
C       2.221612   -2.865046   -0.313634
O       2.876518   -3.055392    0.671806
H      -0.095397    1.762598    0.432030
H       0.327383    1.929380   -1.292241
H      -1.377992    1.723642   -0.808389
H       1.746605   -0.039069   -1.114938
H       1.319313   -0.236816    0.594368
H       0.159793   -2.383071    0.059887
H      -0.007143   -2.998747   -2.453551
H       2.193718   -2.778991   -3.744309
H       2.735828   -1.496101   -2.575461
H       2.404152   -4.525630   -1.920931
