21

C      -0.485453    1.377086    0.143345
C      -0.075364   -0.090107    0.007194
C       0.699680   -0.583318    1.235793
C       1.275753   -1.971625    1.053188
O       2.393698   -2.288922    1.372768
O      -1.195254   -0.966143   -0.118821
C      -1.827374   -0.951901   -1.363530
C      -3.157799   -1.626752   -1.432795
C      -3.068300   -0.119722   -1.573745
H       0.400502    2.010610    0.251460
H      -1.037331    1.713370   -0.737369
H      -1.120083    1.515387    1.024637
H       0.560026   -0.198567   -0.888087
H       1.510723    0.101034    1.497663
H      -0.004899   -0.619437    2.078747
H       0.576248   -2.701711    0.593225
H      -1.145274   -1.071159   -2.206167
H      -3.390314   -2.225867   -2.305630
H      -3.550040   -2.011443   -0.498303
H      -3.410464    0.470494   -0.731689
H      -3.238906    0.328693   -2.546690
