16

O       0.303133    1.321362   -0.058199
C       0.102260   -0.053315   -0.165236
C      -1.368074   -0.412859   -0.014844
O      -2.199059    0.460799    0.080597
C      -1.718924   -1.890605    0.052946
C      -1.746691   -2.413137    1.533497
N      -3.147690   -2.787103    1.759653
C      -3.750444   -2.573628    0.669038
O      -3.065045   -2.099371   -0.403159
H      -0.586563    1.706232   -0.006002
H       0.436778   -0.442843   -1.143898
H       0.685892   -0.600438    0.593950
H      -1.043634   -2.471689   -0.582278
H      -1.093977   -3.279485    1.675795
H      -1.443737   -1.645764    2.253161
H      -4.804038   -2.744345    0.482494
