21

C      -0.049659    1.540736    0.100525
C       1.438123    1.942731   -0.123432
C       2.202429    0.629880   -0.084921
C       3.522847    0.412587   -0.097169
C       4.096431   -0.982645   -0.016989
C       3.093314   -1.991226    0.570718
C       1.709490   -1.875689   -0.095412
C       1.221043   -0.457338   -0.024812
C      -0.023485    0.030726    0.077490
H      -0.433361    1.916690    1.058661
H      -0.712307    1.954033   -0.669859
H       1.564289    2.434261   -1.094490
H       1.795456    2.648589    0.632133
H       4.221259    1.244102   -0.158517
H       4.418000   -1.315923   -1.016445
H       5.008805   -0.975027    0.592321
H       3.477795   -3.011363    0.467234
H       2.985962   -1.796793    1.644869
H       1.798622   -2.172474   -1.150736
H       0.992813   -2.565614    0.362404
H      -0.925024   -0.568718    0.150047
