19

C       0.575682    0.118554    1.108155
O       0.631765   -1.026610    0.259621
C       0.868796   -0.803344   -1.104845
C       2.260817   -0.249358   -1.434264
O       2.386678    1.113801   -1.089343
C       0.407194   -2.052626   -1.920216
N      -0.652017   -1.204417   -2.494749
C      -0.219603   -0.043671   -1.895414
N      -0.467277    1.201902   -1.966130
H       1.545929    0.616708    1.187935
H      -0.162585    0.844194    0.748421
H       0.268783   -0.255459    2.087992
H       3.014356   -0.803092   -0.862914
H       2.462569   -0.414977   -2.506614
H       1.605372    1.568807   -1.444342
H       1.134387   -2.424907   -2.649032
H       0.036436   -2.867553   -1.295541
H      -1.143382   -1.315236   -3.369417
H      -1.195270    1.421708   -2.648379
