18

C       0.040201    1.540495    0.017114
C       1.307696    0.702825   -0.023359
C      -0.030844    0.050579    0.039408
C      -0.568609   -0.908370    1.106049
O      -1.862207   -0.522286    1.541551
C      -2.656800   -0.425228    0.351410
C      -1.904151   -1.221181   -0.707603
C      -0.766711   -1.898759   -0.067872
N      -0.510689   -0.803855   -1.078624
H      -0.201886    2.077488    0.928393
H      -0.256471    2.039705   -0.899488
H       1.841963    0.644465   -0.965427
H       1.936770    0.674594    0.860631
H       0.042858   -1.160554    1.971515
H      -3.642670   -0.860480    0.549026
H      -2.790709    0.625179    0.063954
H      -2.446413   -1.673017   -1.530024
H      -0.436380   -2.921853   -0.191741
