17

O      -0.027029    0.160239   -0.477677
C       0.045634    1.346127   -0.199456
C       1.333750    2.003888    0.138700
C       2.351784    1.180431    0.922251
C       2.593441    1.456576   -0.518977
C      -1.186346    2.197211   -0.191065
C      -2.060387    2.103899   -1.407369
N      -2.480650    1.503375   -0.150787
H       1.293858    3.068178    0.340070
H       2.938147    1.706122    1.666792
H       2.030857    0.181772    1.194651
H       2.436164    0.642610   -1.216900
H       3.353538    2.177268   -0.797213
H      -1.137139    3.136058    0.352350
H      -2.616873    2.983308   -1.718614
H      -1.716302    1.453795   -2.207018
H      -2.268316    0.504784   -0.185863
