17

C       0.096770    1.492122    0.024502
C       0.037302    0.038692    0.037450
C      -0.009652   -1.164684    0.057604
C      -0.041989   -2.599003    0.043740
N      -0.568691   -3.303188    1.231131
C      -1.348496   -3.366830   -0.017790
C      -2.688865   -2.663872   -0.012668
C      -1.298778   -4.605116   -0.765791
N      -1.263346   -5.603757   -1.349216
H       1.071937    1.843251   -0.329676
H      -0.669263    1.915893   -0.633965
H      -0.060974    1.901728    1.028001
H       0.788528   -3.072220   -0.475628
H      -0.051357   -4.167338    1.376821
H      -2.604250   -1.728674    0.542129
H      -3.012907   -2.444327   -1.033815
H      -3.445239   -3.292480    0.465351
