23

C      -0.007978    1.571980    0.149109
C      -0.072433    0.048861   -0.007334
C      -1.518366   -0.462416   -0.055235
C       0.728937   -0.444443   -1.248590
C       0.086259    0.074803   -2.470233
N      -0.454474    0.470405   -3.411794
N       2.146668   -0.061381   -1.229041
C       2.848471   -0.601625   -0.070284
C       2.840264   -0.435271   -2.459528
H       1.025416    1.925831    0.171588
H      -0.512550    2.070053   -0.685548
H      -0.504583    1.881129    1.073812
H       0.404615   -0.415669    0.861902
H      -2.067411   -0.032194   -0.898715
H      -1.557581   -1.553215   -0.147126
H      -2.044707   -0.185908    0.863032
H       0.621371   -1.548529   -1.291829
H       2.784050   -1.704425    0.000246
H       3.905136   -0.332957   -0.146401
H       2.468763   -0.174234    0.859477
H       2.360920    0.030099   -3.322922
H       3.871881   -0.076816   -2.409217
H       2.865770   -1.528936   -2.624704
