17

C       0.034190    1.470730   -0.089254
C      -0.030908   -0.023884   -0.030134
O       0.314294   -0.720778   -1.255514
C      -0.376814   -1.860108   -0.707531
C       0.320274   -2.244030    0.628781
C       0.589420   -0.837424    1.146980
C      -0.702079   -1.544118    1.496964
C      -1.298166   -0.950994    0.190697
O      -2.620930   -0.630661    0.024180
H       1.063188    1.805357   -0.260514
H      -0.589094    1.859850   -0.899799
H      -0.313251    1.901195    0.854737
H      -0.669366   -2.614565   -1.436439
H       0.942706   -3.097760    0.857639
H       1.424365   -0.580865    1.785239
H      -1.138018   -1.811587    2.447519
H      -2.745163   -0.305672   -0.875871
