21

C       0.054783    1.682389    0.311456
C       0.041651    0.167124    0.520539
C      -1.222851   -0.551875    0.074960
C      -2.514779    0.138320   -0.072693
O      -1.718561   -0.167382   -1.227934
C      -1.192478   -2.038115    0.310082
C      -2.085025   -2.970225   -0.492921
C      -0.606749   -2.931225   -0.763302
O      -0.087062   -2.401382   -1.943861
H       1.050993    2.085265    0.514121
H      -0.208994    1.931117   -0.720151
H      -0.646786    2.193673    0.978282
H       0.870014   -0.291436   -0.033640
H       0.213049   -0.072242    1.577762
H      -3.433440   -0.437864    0.020470
H      -2.605069    1.199882    0.142968
H      -0.989625   -2.309800    1.342797
H      -2.516543   -3.832824    0.003195
H      -2.722041   -2.508627   -1.240947
H      -0.006229   -3.777433   -0.445848
H      -0.657902   -1.671070   -2.214245
