21

C       0.146604    1.505575   -0.077068
C      -0.030333    0.008529    0.092610
C      -1.488487   -0.421064   -0.115567
O      -1.868000   -0.244586   -1.464182
O       0.772749   -0.748281   -0.881510
C       1.332121   -1.578267    0.161355
C       2.721315   -1.089703    0.629159
C       2.032197   -0.226468    1.734154
C       0.640617   -0.737241    1.270397
H       1.202073    1.781511   -0.125093
H      -0.339006    1.825518   -1.003010
H      -0.319594    2.041768    0.756854
H      -1.604951   -1.470997    0.199348
H      -2.161790    0.188883    0.497358
H      -1.166043   -0.667020   -1.977954
H       1.178205   -2.644039   -0.025957
H       3.357999   -1.883978    1.028007
H       3.271573   -0.547208   -0.142562
H       2.279906   -0.551768    2.746902
H       2.190189    0.852591    1.679397
H      -0.029454   -1.141032    2.030073
