21

C       0.144128    1.749705   -0.106800
C      -0.007838    0.241156    0.015435
C       1.038593   -0.688382   -0.637555
C       2.075766   -0.493915    0.525695
C       2.261096   -2.017194    0.692305
C       2.687491   -2.569866    2.036244
O       4.072787   -2.286694    2.198991
C       0.758760   -1.840546    0.387709
C       0.653073   -0.500663    1.199538
H       1.175343    2.068181    0.077461
H      -0.137318    2.094446   -1.108219
H      -0.498904    2.270170    0.611928
H      -1.046745   -0.061878   -0.171403
H       1.283463   -0.823563   -1.693402
H       2.830612    0.288052    0.602965
H       2.843033   -2.492610   -0.106964
H       2.092174   -2.113370    2.842846
H       2.498794   -3.656003    2.066131
H       4.356062   -2.648386    3.043704
H      -0.023593   -2.597318    0.297270
H       0.437988   -0.402375    2.265120
