16

C       0.025037    1.518826   -0.057001
C       1.535824    1.921064    0.030929
C       2.109375    0.686854    0.651687
C       1.261775   -0.394139    0.653606
C      -0.054439   -0.043865    0.017618
C       2.013324   -1.439196    1.228388
N       3.238452   -1.026634    1.562415
N       3.278021    0.278500    1.191259
H      -0.498974    1.941631    0.805340
H      -0.454603    1.919682   -0.953451
H       1.963971    2.108459   -0.962809
H       1.683331    2.834188    0.617182
H      -0.930359   -0.370853    0.587151
H      -0.150388   -0.484342   -0.983483
H       1.734810   -2.464335    1.425646
H       4.118925    0.801827    1.364244
