14

N       0.164518    1.406683    0.066889
C       0.003747    0.004868    0.016907
C      -1.110072   -0.808878    0.022385
C      -0.649399   -2.161710    0.033932
N      -1.480008   -3.300219    0.107777
C       0.726445   -2.129506    0.024573
N       1.109796   -0.795553    0.015992
H       0.373563    1.802510   -0.845764
H      -0.683695    1.847656    0.401035
H      -2.138227   -0.478893    0.004267
H      -2.298172   -3.209741   -0.482680
H      -0.989284   -4.144637   -0.159795
H       1.454863   -2.923389    0.014700
H       2.043320   -0.450399    0.151242
