19

C      -0.105584    1.559884    0.001888
C      -0.005026    0.037199   -0.005992
C       0.740728   -0.504418    1.211812
C       0.831358   -2.042598    1.207433
C       1.579469   -2.555969    2.351659
N       2.178553   -2.944044    3.260347
O      -1.316976   -0.549729    0.020898
C      -1.960595   -0.686020   -1.156348
N      -3.153628   -1.093940   -1.179490
H       0.891263    2.011066   -0.001555
H      -0.645217    1.918840   -0.879224
H      -0.641597    1.900311    0.892571
H       0.508065   -0.296230   -0.921197
H       1.745994   -0.072281    1.229702
H       0.229631   -0.172876    2.121465
H      -0.175832   -2.469839    1.216310
H       1.319186   -2.394369    0.290135
H      -1.340677   -0.427570   -2.026823
H      -3.479957   -1.164140   -2.140985
