17

O      -0.054135   -0.050911    0.131133
C       0.008847    1.142746   -0.047386
C       1.282761    1.914709   -0.043323
C       2.591499    1.180141    0.198157
C       3.517743    2.136283    0.139597
C       2.723737    3.403562   -0.134681
C       1.576663    3.031780   -1.144089
C       0.634487    4.030580   -0.435435
C       1.396775    3.319289    0.704955
H      -0.916245    1.732776   -0.228264
H       2.676246    0.118283    0.371471
H       4.589959    2.065576    0.254903
H       3.227063    4.365991   -0.235369
H       1.686584    2.838810   -2.214370
H       0.867482    5.089350   -0.577395
H      -0.440997    3.863560   -0.514105
H       1.297577    3.460644    1.784308
