14

N       0.039926    1.183181    0.434291
C       0.121798   -0.051952   -0.132417
O       1.101612   -0.488050   -0.698036
C      -1.178536   -0.842511   -0.031013
C      -1.077549   -2.364023    0.125724
O      -0.444279   -2.594240    1.376441
C      -1.872882   -2.372433    1.381484
C      -1.980465   -0.851550    1.306766
O      -2.493196    0.012180    1.955632
H       0.874873    1.745802    0.469210
H      -0.739827    1.428859    1.024982
H      -1.861373   -0.535278   -0.833079
H      -1.010439   -3.128431   -0.636254
H      -2.502530   -3.122898    1.842191
