15

C      -0.268342    1.504709    0.151162
C       0.082300    0.011756    0.021872
C       0.766580   -0.530295    1.239065
N       2.053795   -0.749721    1.268741
O       2.325980   -1.213407    2.535963
N       1.213888   -1.284073    3.292589
C       0.231581   -0.869312    2.526226
C      -1.174459   -0.809305    2.990945
O      -1.541130   -1.086327    4.103131
H       0.633644    2.102156    0.309053
H      -0.758647    1.857049   -0.760212
H      -0.945784    1.689545    0.990674
H      -0.826444   -0.569519   -0.169848
H       0.746475   -0.142440   -0.832619
H      -1.889370   -0.479973    2.207198
