16

C       0.688266    1.970216   -0.072953
C       0.389387    0.467840    0.073423
C       0.826312   -0.295909   -1.083399
C       1.209252   -0.916109   -2.048301
C       1.637844   -1.619879   -3.136422
N       2.002103   -2.221654   -4.061197
C       0.969122   -0.108234    1.403836
C       0.900173   -1.606934    1.589994
O       1.410905    0.639459    2.237121
H       1.762444    2.139532   -0.172131
H       0.185079    2.373741   -0.954036
H       0.343470    2.497200    0.817757
H      -0.700080    0.326909    0.164617
H       1.613648   -2.094494    0.917272
H       1.144484   -1.858176    2.622328
H      -0.091740   -1.990959    1.330048
