16

C      -0.228560    0.986334    0.363151
C       0.968735    1.118286   -0.595938
C       1.777031    0.476504    0.563505
O       0.560554    0.224677    1.305550
C       2.540939   -0.774785    0.283283
N       3.851783   -0.751036    0.213997
O       4.236717   -2.049981   -0.097215
C       3.138994   -2.815652   -0.191432
C       2.023604   -2.080110    0.035590
H      -0.576473    1.931633    0.798270
H      -1.094504    0.419712    0.004333
H       0.905041    0.487702   -1.483961
H       1.267239    2.126124   -0.885080
H       2.429449    1.188506    1.082687
H       3.312368   -3.856353   -0.417843
H       0.996253   -2.400141    0.051779
