12

N      -0.111186    1.357972    0.150260
C       0.093672    0.042561   -0.139363
O       1.171448   -0.422849   -0.424449
C      -1.208156   -0.795099   -0.118794
C      -0.963904   -2.220944   -0.043940
C      -0.782314   -3.411817    0.023251
C      -0.579470   -4.759602    0.102123
N      -0.414453   -5.907353    0.170937
H       0.688119    1.970460    0.156713
H      -0.996207    1.718090    0.460782
H      -1.848610   -0.483176    0.715830
H      -1.764498   -0.563388   -1.037286
