16

C      -0.050980    1.549637    0.006486
C       0.060412    0.027794    0.006422
C       0.904346   -0.538368   -1.163172
N       1.384785   -1.798538   -0.627645
C       1.384477   -1.878272    0.741796
O       1.831931   -2.790297    1.400668
C       0.731661   -0.587125    1.247814
H       0.935250    2.016278    0.109609
H      -0.499590    1.916154   -0.923375
H      -0.673710    1.899437    0.835752
H      -0.944295   -0.402999   -0.081568
H       0.308189   -0.686290   -2.069613
H       1.732294    0.142558   -1.415318
H       1.897030   -2.475886   -1.170191
H       1.528952    0.060176    1.636019
H       0.049888   -0.795314    2.074285
