17

C      -0.058415    1.566768   -0.072764
C       0.062569    0.082080   -0.068009
C      -0.180433   -0.873526   -1.046932
N       0.055561   -2.169184   -0.618277
C       0.463625   -1.982817    0.614272
C       0.814242   -2.499289    2.006195
O       1.973899   -3.254901    2.199803
C       0.847429   -0.950172    2.397722
N       0.503796   -0.682204    0.986629
H       0.902577    2.059849    0.116257
H      -0.419675    1.904576   -1.047093
H      -0.764373    1.925805    0.685663
H      -0.511677   -0.678506   -2.057256
H       0.008673   -3.035806    2.514688
H       2.628549   -2.974277    1.550588
H       0.086624   -0.623699    3.111887
H       1.832758   -0.582652    2.696027
