19

C       0.321532    1.437667    0.205905
N       0.366203   -0.000970    0.019581
C       0.675827   -0.578860   -1.174045
O       0.970782    0.042923   -2.175712
C       0.592779   -2.120754   -1.161132
N       1.299779   -2.730159   -2.252753
C       2.750790   -2.643891   -2.277008
C       0.628710   -3.258959   -3.318788
O       1.139959   -3.745199   -4.302896
H       1.034545    1.761125    0.971849
H       0.589457    1.895558   -0.746763
H      -0.680898    1.771847    0.494889
H       0.146154   -0.594836    0.802478
H       0.963056   -2.507745   -0.200867
H      -0.466134   -2.397597   -1.229812
H       3.177565   -3.112812   -1.382179
H       3.095968   -3.173020   -3.165017
H       3.073100   -1.599356   -2.326718
H      -0.469023   -3.210061   -3.172958
