19

O       0.640571    0.554260    1.083064
C       0.086356   -0.393297    0.217948
C      -1.465384   -0.477121   -0.009538
C      -2.239679    0.848896    0.077137
C      -3.095300    0.881248   -1.204810
C      -2.191581    0.284179   -2.311735
C      -1.231509   -0.657258   -1.553527
C       0.178659   -0.107121   -1.280949
O       0.921341    0.613812   -1.890352
H       1.115488    1.190001    0.532776
H       0.469898   -1.396672    0.453104
H      -1.960744   -1.295077    0.514532
H      -2.833989    0.927765    0.990588
H      -1.535481    1.689335    0.087799
H      -3.978396    0.245243   -1.070827
H      -3.455753    1.884888   -1.448796
H      -2.767541   -0.240189   -3.077846
H      -1.616236    1.065353   -2.819527
H      -1.225190   -1.689909   -1.908446
