12

F       0.094736    0.051994    0.002494
C      -0.053204    1.362828    0.011228
C      -1.248930    1.973234    0.030754
C      -1.288840    3.427654    0.039129
O      -2.285852    4.116089    0.056458
N      -0.010407    4.033875    0.024710
C       1.226563    3.427410    0.004003
O       2.286133    4.007045   -0.006360
N       1.136904    2.031168   -0.001623
H      -2.171969    1.415494    0.040523
H      -0.003644    5.044893    0.030373
H       2.006693    1.520407   -0.015984
