15

O      -0.166813   -0.013985    0.315954
C      -0.053060    1.167745    0.071719
N       1.123246    1.812674   -0.166666
C       2.387564    1.142355   -0.154965
C       3.389619    1.499145   -1.299544
N       3.522246    2.862220   -0.608410
C       3.569256    1.871219    0.561594
C       4.516360    1.051110   -0.342337
O       5.602853    0.565896   -0.350188
H      -0.914314    1.861412    0.016150
H       1.126499    2.801388   -0.363897
H       2.230446    0.089944    0.070468
H       3.263812    1.405104   -2.375896
H       4.439816    3.280943   -0.780679
H       3.647232    2.199125    1.595813
