18

O       0.009258    0.044500    0.707208
C      -0.030765    1.115867    0.149593
C      -1.402130    1.769146   -0.132506
O      -1.668546    2.292100   -1.420726
C      -0.702031    3.123572   -2.031866
C       0.582180    2.367023   -2.450559
N       1.286256    2.864173   -1.222222
C       0.227491    3.914813   -1.079788
C       1.279030    1.880712   -0.151027
H      -2.155294    0.998998    0.043298
H      -1.535320    2.546521    0.640368
H      -1.239235    3.680786   -2.803494
H       0.493799    1.279742   -2.538628
H       1.050854    2.765008   -3.356253
H       0.565232    4.856465   -1.523949
H      -0.113547    4.116307   -0.060992
H       1.566463    2.377850    0.786056
H       2.042911    1.120500   -0.342693
