23

C       0.076270    1.547119   -0.021048
C      -0.032302    0.017587    0.017655
C      -1.457755   -0.524184    0.039737
C      -2.357306   -0.132506   -1.190636
C      -3.518747   -1.170076   -1.137581
C      -3.158126   -2.028159    0.122123
C      -1.619937   -2.066621   -0.001895
C      -3.305231   -1.105725    1.322034
C      -2.309374   -0.216198    1.270292
H       1.124168    1.862831   -0.024298
H      -0.396885    1.959913   -0.917631
H      -0.402934    2.009700    0.848313
H       0.486214   -0.399372   -0.856377
H       0.503490   -0.361142    0.897754
H      -2.710917    0.898843   -1.125239
H      -1.783221   -0.225842   -2.119263
H      -4.502597   -0.703593   -1.046065
H      -3.532544   -1.796488   -2.035044
H      -3.681811   -2.983129    0.179741
H      -1.266314   -2.509626   -0.940541
H      -1.135031   -2.561973    0.843830
H      -4.141533   -1.117057    2.010668
H      -2.167878    0.646047    1.910981
