19

O       0.116290    1.383985    0.061918
C       0.025596   -0.005568   -0.013793
C      -1.319121   -0.724799    0.012582
C      -2.592586    0.114389    0.062252
C      -2.969829    0.657375   -1.318705
O      -1.823876    1.160689   -2.008561
C      -0.965230    0.101453   -2.420769
C      -0.466696   -0.719115   -1.242455
O       0.105128   -1.947603   -1.602885
H      -0.500057    1.754267   -0.587093
H       0.836742   -0.475273    0.533670
H      -1.331441   -1.667033    0.550077
H      -3.423446   -0.481619    0.451632
H      -2.446262    0.952459    0.754523
H      -3.436910   -0.129300   -1.930387
H      -3.670242    1.493446   -1.243315
H      -1.489277   -0.567341   -3.120698
H      -0.134078    0.576036   -2.955507
H       1.005347   -1.780087   -1.904670
