21

C      -0.000600    1.566522    0.098665
C       0.056517    0.065058    0.031573
C      -0.882548   -0.817433    0.800522
C       0.596797   -0.967940    1.041808
C       1.298094   -1.756974   -0.083661
C       0.490998   -2.821856   -0.847993
O      -0.107910   -1.811314   -1.700535
C       0.723236   -0.761748   -1.113917
C       1.531728   -0.022414   -2.147581
H       0.965784    2.030544   -0.126720
H      -0.735287    1.970111   -0.608771
H      -0.297764    1.895117    1.100100
H      -1.418371   -0.315017    1.600450
H      -1.459986   -1.580200    0.290483
H       1.026820   -0.794435    2.021554
H       2.371208   -1.901300    0.037386
H       1.103639   -3.519279   -1.433137
H      -0.257824   -3.389359   -0.283140
H       0.874057    0.553240   -2.808605
H       2.232726    0.673461   -1.676215
H       2.099464   -0.726183   -2.762801
