17

O       0.302214    1.198979   -0.424018
C       0.058869   -0.054489    0.185823
C      -1.389556   -0.502399    0.079208
C      -2.351921    0.270136    0.947873
O      -2.307281    1.650380    0.562880
C      -1.876755   -0.991715   -1.261396
C      -1.677666   -1.970123   -0.132058
H      -0.425890    1.772874   -0.151120
H       0.708966   -0.778820   -0.318172
H       0.353679   -0.045219    1.250907
H      -3.371943   -0.126338    0.834365
H      -2.065819    0.163077    2.005675
H      -2.734154    2.173993    1.247337
H      -2.892497   -0.750690   -1.556238
H      -1.165257   -0.994154   -2.079475
H      -0.832186   -2.648161   -0.177701
H      -2.557280   -2.394914    0.341193
