21

C      -0.029549    1.478399   -0.147040
C       0.101251   -0.007864    0.110768
O       0.403434   -0.716186   -1.090001
C       1.521991   -1.556069   -0.838448
C       1.667439   -1.540820    0.687907
C       1.074287   -2.766286    1.447415
C       2.523877   -3.298372    1.617930
C       3.050920   -1.875611    1.277055
O       1.161381   -0.257566    1.008037
H       0.910034    1.868887   -0.545971
H      -0.829159    1.660200   -0.869673
H      -0.270006    2.001391    0.782758
H      -0.839398   -0.418751    0.519189
H       1.330129   -2.553834   -1.247497
H       2.421270   -1.144859   -1.319439
H       0.644436   -2.442292    2.398921
H       0.351367   -3.395259    0.922021
H       2.792222   -3.706770    2.593572
H       2.789417   -4.031148    0.851409
H       3.913408   -1.785245    0.611546
H       3.230441   -1.278497    2.174478
