19

C       0.010432    1.458140   -0.012137
C       0.028435   -0.043541   -0.063579
C       0.534572   -0.971889   -1.195137
O       1.887431   -0.936452   -1.578246
C       0.052182   -1.963921   -0.120109
C       0.529326   -1.044254    1.056305
C      -0.846207   -1.070499    1.756633
C      -1.154763   -1.017649    0.247138
O      -2.372053   -0.915757   -0.399702
H       1.014264    1.863581   -0.178301
H      -0.646526    1.863156   -0.789212
H      -0.347544    1.826075    0.955611
H      -0.043674   -0.948870   -2.122733
H       2.428972   -0.994304   -0.783647
H       0.046573   -3.055392   -0.117712
H       1.511386   -1.054466    1.525639
H      -1.105752   -1.993334    2.286640
H      -1.119556   -0.193141    2.351172
H      -2.887514   -1.708007   -0.213313
