16

O      -0.176774    1.332810    0.159385
C      -0.119293   -0.050869    0.018724
C      -1.427192   -0.749870   -0.055547
C      -2.733094    0.030994    0.043081
C      -3.270719   -0.010253    1.403715
N      -3.690033   -0.060348    2.478956
C      -0.545025   -0.690917   -1.312880
C      -0.893850    0.163530   -2.471480
O      -0.695172   -0.159531   -3.618260
H       0.624251    1.716544   -0.213075
H       0.696175   -0.540624    0.548223
H      -1.470941   -1.733239    0.400528
H      -2.579217    1.077307   -0.232028
H      -3.484073   -0.384691   -0.637809
H      -0.057983   -1.617765   -1.596920
H      -1.343096    1.148682   -2.227099
