17

C       0.028176    1.489400   -0.242963
C       1.544375    1.588400    0.178647
C       1.487878    0.136842    0.717953
C       0.961113   -0.489833    2.043939
C       0.861179   -1.785308    1.275625
C      -0.334945   -0.826566    1.311999
C       0.085717   -0.009975    0.083132
O       0.577991   -0.892489   -0.967101
C       1.599447   -1.235651    0.001798
H      -0.645934    2.044891    0.413408
H      -0.208396    1.728160   -1.281235
H       2.231324    1.707770   -0.661894
H       1.778843    2.350076    0.925014
H       1.173883   -0.319276    3.089666
H       0.814666   -2.793563    1.660820
H      -1.308111   -1.116575    1.690158
H       2.462801   -1.756345   -0.417620
