21

C       0.416932    1.496064   -0.098186
C       0.288569   -0.021752    0.082969
C       0.773087   -0.552943    1.427523
C       0.146841    0.071488    2.659589
C       1.179506   -2.000702    1.489037
N       2.169978   -0.939699    1.600174
C       3.200173   -0.717800    0.682661
N       3.967828   -1.841588    0.446904
O       3.432133    0.358225    0.168340
H       1.459175    1.802221    0.009544
H       0.071742    1.785754   -1.095531
H      -0.191561    2.043741    0.628288
H      -0.763139   -0.319337   -0.025924
H       0.838707   -0.529079   -0.716441
H      -0.944632   -0.014438    2.621417
H       0.504086   -0.423086    3.566147
H       0.401104    1.132455    2.733310
H       0.999322   -2.583691    2.389858
H       1.156404   -2.569464    0.561613
H       3.949903   -2.580698    1.131706
H       4.867472   -1.647300    0.035582
