16

C      -0.124685    0.863747    1.874328
N      -0.049913   -0.237202    0.933369
C      -1.011728   -0.589896    0.206877
C      -0.940011   -1.775523   -0.712164
C       0.302290   -2.621406   -0.481542
O       1.018829   -3.002018   -1.367866
O      -2.279364    0.011769    0.178748
C      -2.386741    1.286685   -0.296114
O      -3.420783    1.874681   -0.296524
H       0.273423    0.518711    2.833414
H       0.530422    1.672319    1.533112
H      -1.131698    1.265316    2.035694
H      -1.830210   -2.398175   -0.543135
H      -0.972998   -1.457557   -1.760017
H       0.487553   -2.887282    0.578951
H      -1.427736    1.675689   -0.679640
