20

C       0.125827    1.789773    0.072956
C      -0.259051    0.325224    0.081528
C      -1.699114    0.019961   -0.317264
C      -1.935554    0.003684   -1.827526
O      -1.350374   -1.189742   -2.342683
N       0.797360   -0.594031   -0.359044
C       0.392613   -0.608514    1.066758
C       1.352469   -0.176043    2.045276
C       2.127632    0.181267    2.892736
H       1.176761    1.909395    0.339958
H      -0.023215    2.226430   -0.920965
H      -0.482034    2.357148    0.786351
H      -2.003152   -0.960832    0.066735
H      -2.366702    0.760812    0.138116
H      -3.017029    0.022861   -2.031546
H      -1.494666    0.894623   -2.297452
H      -1.290825   -1.116737   -3.299337
H       0.378355   -1.380054   -0.850473
H      -0.226441   -1.441366    1.396114
H       2.822119    0.494628    3.632043
