17

N       0.141883    1.435234    0.151133
C      -0.086182   -0.000419   -0.022761
C      -1.600042   -0.309432    0.001152
C      -2.219014   -0.012971    1.347201
C      -3.427953   -0.745792    1.791229
N      -2.127048   -0.999224    2.440093
C       0.528889   -0.540877   -1.255277
N       1.013258   -0.923293   -2.233329
H       1.134403    1.626262    0.246669
H      -0.172257    1.936669   -0.675381
H       0.382438   -0.512083    0.826414
H      -2.086336    0.285034   -0.783345
H      -1.756638   -1.362401   -0.260793
H      -2.079440    1.009457    1.686504
H      -4.165495   -0.253472    2.418334
H      -3.835161   -1.506217    1.128920
H      -1.741899   -1.873309    2.086452
