18

C       0.079479    1.453584    0.258430
C       0.004143   -0.022416   -0.093794
C       0.631110   -0.490673   -1.368241
N       1.254945   -0.824402   -0.082327
C      -1.161292   -0.710140    0.411208
C      -2.160730   -1.238659    0.827178
C      -3.317953   -1.947313    1.352060
C      -2.928477   -3.223901    2.104285
O      -3.584466   -4.229084    2.086222
H       0.965926    1.912554   -0.191462
H      -0.803848    1.986747   -0.105963
H       0.129947    1.590566    1.343268
H       0.199763   -1.334261   -1.897806
H       1.091462    0.263500   -2.002091
H       2.039986   -0.200744    0.093984
H      -3.856658   -1.312771    2.073041
H      -4.036992   -2.218331    0.571811
H      -1.987092   -3.141071    2.688573
