17

N      -0.007051    1.397875   -0.009194
C      -0.005077   -0.009386   -0.008988
C      -1.095722   -0.842620    0.118281
N      -0.603604   -2.149842    0.073488
C      -1.120594   -3.458899   -0.263093
C       0.193208   -4.272753   -0.157267
O       1.257457   -3.333165   -0.413475
C       0.735392   -2.104520   -0.160064
C       1.177585   -0.810622   -0.200783
H       0.801508    1.782001    0.463692
H      -0.843033    1.783100    0.411651
H      -2.125693   -0.631549    0.351546
H      -1.877522   -3.811104    0.443485
H      -1.546555   -3.482460   -1.275985
H       0.314986   -4.679511    0.853731
H       0.268542   -5.081195   -0.885824
H       2.185049   -0.462410   -0.356821
