18

C      -0.158204    1.528144    0.063403
C       0.085165    0.051697    0.036561
N      -0.772193   -0.900542    0.783251
C       0.692296   -0.897232    1.014652
C       1.265330   -1.785370   -0.087947
C       0.674718   -0.754746   -1.146590
O      -0.305331   -1.213841   -2.050273
C       1.738522   -0.031041   -1.839144
C       2.610053    0.532692   -2.447390
H       0.696199    2.072578   -0.349109
H      -1.043135    1.788849   -0.528077
H      -0.322891    1.875835    1.089043
H      -1.201644   -0.358851    1.533958
H       1.109137   -0.698309    1.993920
H       2.353878   -1.842142   -0.118878
H       0.818115   -2.779600   -0.148877
H       0.145856   -1.544401   -2.834462
H       3.377871    1.037727   -2.980014
