16

C      -0.374203    1.106385   -0.117290
C       1.100667    1.033297    0.233070
C       0.324196   -0.216017   -0.012742
O       0.091585   -1.009484    1.130390
C      -0.911750   -1.888069    1.039334
N      -1.650969   -2.072893   -0.045401
N      -2.489848   -3.063033    0.376207
C      -2.213905   -3.399372    1.647521
N      -1.213332   -2.673838    2.108334
H      -1.058726    1.362750    0.682886
H      -0.669291    1.453669   -1.100900
H       1.835768    1.334156   -0.504507
H       1.374835    1.238414    1.261462
H       0.494388   -0.797522   -0.913072
H      -3.190379   -3.422823   -0.249574
H      -2.753280   -4.160644    2.191011
