20

C      -0.661052    1.214498   -0.035783
C       0.157370   -0.065461   -0.100317
C       1.544271   -0.050438   -0.796828
C       2.092032   -0.993496    0.303792
C       0.875769   -0.639517    1.200246
C       1.164790    0.400519    2.283083
C       0.117874   -1.805818    1.782332
O       0.334813   -2.968419    1.546950
H      -0.089881    2.044066    0.392514
H      -0.968794    1.514758   -1.043727
H      -1.570831    1.088209    0.561328
H      -0.453660   -0.865448   -0.533139
H       1.581432   -0.403739   -1.829985
H       2.002934    0.942722   -0.757166
H       2.063522   -2.046850    0.017563
H       3.077932   -0.763804    0.715054
H       1.654694    1.284571    1.865429
H       0.247562    0.731712    2.782746
H       1.831633   -0.015420    3.046449
H      -0.726216   -1.512770    2.452793
