20

C      -1.499921    1.079902    0.626592
C      -0.969971   -0.344433    0.448215
C      -1.630635   -1.085948   -0.714389
O      -1.397827   -0.458669   -1.972690
C      -1.167525   -2.549028   -0.822594
O      -1.368166   -3.331856    0.353123
C      -2.631988   -3.924963    0.488038
C      -3.667636   -3.019596    1.028935
N      -4.473854   -2.312558    1.459596
H      -0.964878    1.603954    1.423855
H      -1.389248    1.654213   -0.297468
H      -2.563365    1.069010    0.887188
H       0.117705   -0.327448    0.275253
H      -1.121715   -0.929569    1.361394
H      -2.718538   -1.056994   -0.586892
H      -0.448276   -0.314123   -2.057665
H      -1.656185   -3.019225   -1.687389
H      -0.084538   -2.568797   -0.996811
H      -2.996055   -4.332533   -0.467075
H      -2.520254   -4.761629    1.185725
