18

C       0.201304    1.652008    0.198655
C       1.314833    0.684553   -0.080332
C       2.295574    0.424694    0.994424
C       1.959607   -0.095630    2.177818
C       0.560252   -0.517980    2.455364
O      -0.303355    0.456862    3.124430
C      -1.386705    0.135776    2.221990
C      -0.421043   -0.561348    1.252087
N      -0.074995    0.228005    0.072339
H       0.200466    2.104069    1.187259
H      -0.192717    2.269979   -0.604633
H       1.698577    0.618952   -1.096260
H       3.330363    0.672641    0.773105
H       2.712336   -0.270735    2.940216
H       0.547284   -1.455197    3.031150
H      -2.117315   -0.540894    2.685489
H      -1.900547    1.027912    1.850436
H      -0.697406   -1.562429    0.914090
