19

C      -0.131510    1.572422    0.064729
C       0.000614    0.078660    0.035803
C      -0.820672   -0.860622    0.904908
C       0.672695   -0.911891    0.953442
O       1.170713   -1.710512   -0.124666
C       0.656203   -0.745113   -1.106490
C      -0.224374   -1.400912   -2.164057
C       1.773609   -0.035135   -1.726917
C       2.679394    0.552592   -2.255463
H       0.781571    2.056458   -0.293974
H      -0.964056    1.911086   -0.563572
H      -0.326861    1.923896    1.082736
H      -1.305387   -0.360247    1.738569
H      -1.371014   -1.702469    0.496507
H       1.297242   -0.799900    1.832073
H      -1.072178   -1.911146   -1.702796
H      -0.598094   -0.646352   -2.862493
H       0.358375   -2.132883   -2.730009
H       3.488468    1.061672   -2.718565
