21

C      -0.162960    1.552426   -0.040172
C       0.054460    0.036565   -0.032491
O       0.836567   -0.384706   -1.141224
C       0.695252   -0.456424    1.265183
O       2.004787    0.085056    1.317309
C       2.767121   -0.367147    2.414239
C       4.150506    0.285800    2.321716
C       5.018650   -0.110724    3.421602
C       5.711914   -0.455003    4.340718
H       0.782494    2.074785    0.132600
H      -0.562878    1.863431   -1.008357
H      -0.868016    1.854863    0.741879
H      -0.912509   -0.469551   -0.140203
H       1.746400   -0.146444   -0.925049
H       0.108488   -0.140594    2.142626
H       0.742981   -1.556203    1.259681
H       2.283816   -0.091912    3.364233
H       2.863542   -1.463752    2.398424
H       4.604503    0.013492    1.361345
H       4.023929    1.374918    2.309581
H       6.335703   -0.751161    5.147290
