15

N      -0.098823   -1.142922   -0.106290
C      -0.084366    0.011772   -0.093084
C      -0.037098    1.480936   -0.034637
C      -0.650398    2.029991    1.307804
C       0.256932    3.214121    1.711036
C       1.533169    2.947889    0.955974
C       1.399131    2.016246    0.018539
C      -0.734415    2.035469   -1.211377
N      -1.268865    2.511384   -2.118166
H      -1.701054    2.294553    1.187405
H      -0.582805    1.233158    2.050900
H      -0.170612    4.179775    1.412610
H       0.405635    3.259828    2.794383
H       2.449811    3.494575    1.145439
H       2.145730    1.670470   -0.683552
