18

O      -0.198343    1.475591   -0.040271
C      -0.026592    0.078513    0.002272
C       0.313423   -0.599900    1.360109
C      -0.734874   -1.693119    1.011951
C      -1.626970   -2.222874    2.139760
C      -2.657422   -3.139948    1.665040
C      -3.494876   -3.893077    1.244582
C      -1.347193   -0.715237   -0.028759
H       0.670766    1.889097   -0.030905
H       0.658994   -0.262517   -0.786959
H       1.344328   -0.909528    1.550361
H      -0.033253    0.034050    2.183102
H      -0.257845   -2.538228    0.506380
H      -1.005196   -2.727887    2.891400
H      -2.099495   -1.375280    2.654039
H      -4.240179   -4.558079    0.885004
H      -2.144443   -0.111822    0.416972
H      -1.692067   -1.114818   -0.983780
