20

C       0.974042   -0.977339   -0.223611
C      -0.183319   -0.413996    0.610441
C      -1.551168   -0.640880   -0.007679
C      -1.848677    0.067487   -1.320904
C      -1.862796    1.594352   -1.175049
N      -2.822206    2.053617   -0.319498
O      -1.106030    2.321822   -1.787608
C      -2.317122   -1.847696    0.341406
O      -2.644425   -0.586213    0.936380
H       1.922480   -0.849210    0.305623
H       0.841604   -2.046857   -0.419503
H       1.064100   -0.464602   -1.185588
H      -0.190016   -0.868317    1.606692
H      -0.038430    0.663030    0.759006
H      -1.096036   -0.175853   -2.072630
H      -2.824071   -0.262534   -1.692878
H      -3.289968    1.411061    0.301750
H      -2.813323    3.035078   -0.092745
H      -3.055363   -2.243029   -0.354700
H      -1.889944   -2.579352    1.025786
