17

C      -0.050681    1.561041   -0.056350
O       1.312793    2.022213   -0.055258
C       2.126173    0.942718   -0.444018
C       2.592503   -0.081675    0.646471
C       1.628604   -0.071944    1.825703
O       0.311293   -0.386218    1.367997
C       0.038033    0.034390    0.040928
C       1.277558   -0.260313   -0.863951
O       2.187816   -1.174389   -0.228910
H      -0.574289    1.995340    0.798923
H      -0.552162    1.879137   -0.982455
H       2.918174    1.278674   -1.114118
H       3.644880   -0.130734    0.935275
H       1.892297   -0.846591    2.551814
H       1.654636    0.907892    2.324481
H      -0.880333   -0.471927   -0.262644
H       1.049868   -0.510640   -1.901563
