17

C      -0.350621    1.619070   -0.227161
C      -0.006610    0.156280   -0.019556
C       0.717359   -0.604635   -1.202425
C       1.870230   -0.773469   -0.229591
C       3.069972   -1.167916    0.310261
O       4.076378   -1.866026   -0.264829
N       3.144471   -0.737905    1.607565
C       2.010135   -0.096038    1.879227
N       1.227135   -0.099417    0.778123
H       0.506342    2.166856   -0.629913
H      -1.184289    1.710139   -0.930866
H      -0.650903    2.090721    0.713795
H      -0.859378   -0.396528    0.385740
H       0.216547   -1.521040   -1.525471
H       0.910275    0.022596   -2.077690
H       4.755837   -1.957477    0.414162
H       1.757357    0.363640    2.820867
