25

C       0.104534    1.526374   -0.005547
C       0.054536   -0.004695    0.079860
C       0.648442   -0.495742    1.407009
C      -1.385199   -0.509981   -0.144821
C      -1.505076   -2.016939   -0.260246
C      -1.870397   -2.904260    0.921894
C      -2.817668   -2.746500   -0.244639
C      -4.140351   -2.032921   -0.078563
O      -2.864472   -3.807532   -1.170562
H       1.128381    1.897164    0.110466
H      -0.276604    1.886892   -0.966965
H      -0.503535    1.982584    0.785295
H       0.673595   -0.407036   -0.735481
H       0.062701   -0.123887    2.256959
H       0.663883   -1.587114    1.465331
H       1.675224   -0.135760    1.531993
H      -2.019375   -0.141003    0.672497
H      -1.772797   -0.047959   -1.063224
H      -0.794063   -2.467325   -0.949168
H      -1.355607   -3.853573    1.022510
H      -2.124832   -2.420154    1.860222
H      -4.068941   -1.197440    0.622063
H      -4.493952   -1.649765   -1.041388
H      -4.901461   -2.722207    0.308532
H      -3.432369   -4.493023   -0.800430
