19

C      -0.916348    1.340660    0.535244
C      -0.130938    0.163818   -0.058450
C       0.673664   -0.566790    1.020238
C       0.600410   -1.998715    1.480068
C       0.768411   -3.042183    0.357300
C       1.034575   -2.528125   -1.006598
N       2.129536   -2.523946   -0.018865
C       1.923733   -1.426613    1.005994
H      -0.242751    2.079821    0.982561
H      -1.507880    1.848658   -0.232462
H      -1.603214    0.999777    1.317418
H      -0.836256   -0.520452   -0.539031
H       0.535374    0.538591   -0.845201
H       0.771044    0.064077    1.906449
H       0.299590   -2.289453    2.478658
H       0.625760   -4.101430    0.547578
H       1.195416   -3.282711   -1.773053
H       0.625177   -1.602188   -1.378929
H       2.806411   -1.144188    1.566951
