20

C       0.147092    1.479038    0.050558
C      -0.027377   -0.045939    0.009661
C      -1.509846   -0.462645   -0.014033
C      -2.344744    0.027839    1.172832
O      -3.683203   -0.446009    1.108816
C       0.753442   -0.677324   -1.185872
O       1.816478   -1.441402   -0.568122
C       1.596827   -1.340023    0.763383
N       0.639794   -0.636423    1.199776
H       1.206884    1.742549   -0.018053
H      -0.380648    1.954385   -0.783630
H      -0.236136    1.892856    0.985970
H      -1.972387   -0.109136   -0.944416
H      -1.552394   -1.560376   -0.037281
H      -1.854731   -0.258148    2.112957
H      -2.425193    1.118969    1.163148
H      -3.660558   -1.400633    1.228864
H       0.143656   -1.364046   -1.781031
H       1.207776    0.064193   -1.848104
H       2.299271   -1.898384    1.373097
