11

N      -0.077089    1.286114    0.306235
C      -0.008793    0.049006   -0.016571
N       1.138167   -0.703934   -0.265296
N       1.174915   -2.007782   -0.603930
C       0.027095   -2.597387   -0.701992
N      -1.211935   -2.016305   -0.493253
C      -1.216007   -0.768601   -0.170700
H       0.845547    1.719822    0.374638
H       2.046753   -0.268494   -0.195775
H       0.039489   -3.645380   -0.973370
H      -2.162609   -0.261720    0.005040
