15

O      -0.869413    0.657892    0.099405
C       0.060011   -0.410000   -0.126123
C       0.928883   -0.159761   -1.278905
C       1.631381    0.079228   -2.223515
C       0.856977   -0.700896    1.112862
C       2.172764   -0.992952    1.366727
N       2.373573   -1.212216    2.710437
C       1.194511   -1.050956    3.266413
N       0.237695   -0.750084    2.344904
H      -0.351020    1.463548    0.215658
H      -0.590491   -1.264436   -0.359056
H       2.249806    0.282771   -3.063076
H       2.978835   -1.061812    0.653161
H       0.973559   -1.133419    4.320297
H      -0.726430   -0.511035    2.510811
