18

C      -0.070297    1.491900    0.043785
C       0.010236   -0.000688   -0.005246
C      -0.045490   -0.779068   -1.089444
C       0.050118   -2.249017   -0.770846
C       0.354428   -2.250258    0.732028
C       0.290329   -3.445660    1.576085
O       1.550369   -2.923802    1.145338
C       0.153431   -0.825758    1.256048
H       0.830483    1.922755    0.499304
H      -0.185803    1.922400   -0.954666
H      -0.917127    1.824232    0.658246
H      -0.161281   -0.410574   -2.103363
H      -0.884609   -2.779483   -1.000433
H       0.849141   -2.765611   -1.315531
H       0.081605   -3.347297    2.641632
H       0.005453   -4.403399    1.139950
H       1.008641   -0.525238    1.873558
H      -0.740005   -0.740498    1.890996
