23

C      -0.166369    1.729166    0.506775
C      -0.095339    0.189734    0.503837
C      -1.559722   -0.280960    0.362377
C       1.002789   -0.534407   -0.353942
C       2.073764    0.082540    0.595430
C       0.935155   -0.450406    1.529893
C       0.978547   -1.748035    0.671096
C      -0.109497   -2.824316    0.769323
O       2.224531   -2.439331    0.783201
H       0.752143    2.243306    0.785160
H      -0.472784    2.099059   -0.478684
H      -0.937275    2.046824    1.218447
H      -1.678001   -1.190873   -0.223514
H      -2.039063   -0.434120    1.336226
H      -2.137731    0.493877   -0.151140
H       1.042530   -0.598285   -1.445642
H       3.019938   -0.443505    0.656750
H       2.223657    1.155869    0.539661
H       0.893871   -0.396763    2.621152
H      -0.314772   -3.280699   -0.207245
H       0.270296   -3.608255    1.430964
H      -1.053333   -2.482453    1.183735
H       2.208738   -3.161568    0.147330
