13

N      -0.039105    1.344012    0.010746
C      -0.008539    0.062942    0.003308
N       1.147346   -0.735100   -0.007324
N       1.228188   -2.074831   -0.015364
C       0.116265   -2.736807   -0.013260
C      -1.174570   -2.080626   -0.002723
C      -1.229312   -0.724711    0.005271
C      -2.359565   -2.880347   -0.001017
N      -3.303688   -3.549398    0.000160
H       0.896518    1.753117    0.008135
H       2.047008   -0.276398   -0.009463
H       0.191298   -3.816815   -0.019793
H      -2.162862   -0.177388    0.013305
