21

C       0.130170    1.527508   -0.022865
C      -0.049302    0.012899   -0.089954
C      -1.498229   -0.436981    0.053010
O      -2.403412    0.352727    0.204478
C      -1.746215   -1.939010   -0.005242
C      -3.230223   -2.310434    0.146276
C      -3.452984   -3.750773    0.088707
C      -3.612711   -4.943319    0.038167
C      -3.823306   -6.383109   -0.020782
H       1.184537    1.796869   -0.130294
H      -0.436885    2.022836   -0.815008
H      -0.233220    1.921428    0.929588
H       0.335439   -0.391511   -1.036486
H       0.537010   -0.491893    0.690378
H      -1.348544   -2.324459   -0.952830
H      -1.146984   -2.424752    0.775537
H      -3.605071   -1.902761    1.092027
H      -3.806529   -1.802559   -0.635447
H      -4.487597   -6.656064   -0.848398
H      -2.878924   -6.919719   -0.165945
H      -4.276610   -6.758659    0.903455
