18

C      -0.353442    1.313217   -0.049304
O       0.229762    0.029240    0.119536
C       0.731823   -0.511224   -1.039239
C      -0.139915   -1.061776   -2.153236
C       0.848855   -1.950491   -1.444367
O       2.161020   -1.769201   -1.981491
C       2.192032   -0.386276   -1.504322
C       2.619443    0.608662   -2.561917
H       0.387783    2.059349   -0.367125
H      -1.165408    1.289163   -0.788388
H      -0.757239    1.607252    0.921792
H      -1.171815   -1.209543   -1.847877
H       0.008650   -0.805585   -3.198280
H       0.617891   -2.882099   -0.942682
H       2.848127   -0.330536   -0.625600
H       1.930186    0.615033   -3.410555
H       2.662879    1.617515   -2.137250
H       3.617495    0.357316   -2.934961
