16

C       0.554433    0.915641   -0.053172
C      -0.588983    0.030053    0.346743
N      -1.264797   -0.014542    1.403479
O      -1.004049   -0.833215   -0.685409
C      -0.233335   -1.895111   -0.969111
O       0.790290   -2.190155   -0.408316
C      -0.822508   -2.718325   -2.141057
C      -0.161589   -4.057056   -2.347272
O      -1.716311   -2.276940   -2.813880
H       0.776058    1.639912    0.732477
H       1.443310    0.307029   -0.241295
H       0.308907    1.448946   -0.977012
H      -0.934128    0.684386    2.068375
H      -0.283587   -4.674404   -1.450541
H      -0.604228   -4.554219   -3.210248
H       0.916076   -3.927619   -2.484356
