13

N       0.091140    1.393726    0.136088
C       0.003376    0.026448    0.042507
C      -1.134758   -0.787051    0.014524
N      -0.621113   -2.082708   -0.020100
C       0.716306   -1.988891   -0.009744
N       1.137889   -0.732650    0.025754
C      -2.545650   -0.552206    0.019204
O      -3.384422   -1.440535   -0.011512
H       0.997897    1.756531   -0.118967
H      -0.679125    1.928224   -0.233241
H      -1.205470   -2.902993   -0.046615
H       1.363120   -2.853605   -0.031816
H      -2.843172    0.518571    0.054688
