17

N       0.338181    0.995907   -0.813096
C       0.084522    0.204588    0.273493
O       0.890084    0.057699    1.171694
C      -1.290982   -0.414721    0.266655
N      -1.421860   -1.736550    0.904831
C      -2.095206   -0.601003    1.518681
C      -1.611032   -0.168893    2.895038
C      -2.311759   -0.883704    3.956065
C      -2.910195   -1.475729    4.814101
H       1.262222    1.387728   -0.897240
H      -0.258458    1.006073   -1.621480
H      -1.872782   -0.233084   -0.636029
H      -2.071956   -2.315064    0.380187
H      -3.173119   -0.521186    1.383078
H      -0.532704   -0.337972    2.949800
H      -1.772209    0.910978    3.010978
H      -3.420563   -2.000556    5.582810
