16

O       0.373335    0.830546    0.822432
C      -0.040950   -0.242575    0.013702
C      -1.580286   -0.275142   -0.105505
C      -2.061588    0.229463   -1.468066
N      -1.414072   -0.540995   -2.530587
C      -0.068147   -0.751876   -2.576659
O       0.521500   -1.333035   -3.461335
C       0.645105   -0.140665   -1.355055
O       1.700500    0.434166   -1.466825
H       1.242407    1.094561    0.483662
H       0.300623   -1.205201    0.438338
H      -1.939397   -1.299069    0.032780
H      -1.990432    0.338632    0.699996
H      -3.141564    0.099763   -1.567714
H      -1.852659    1.302697   -1.575913
H      -1.936170   -0.820403   -3.348696
