17

C      -0.150016    1.626866   -0.019568
C      -0.053726    0.107846   -0.005766
C       1.159136   -0.578428   -0.685688
O       1.467889   -0.669490   -2.020142
C       2.127559   -0.333882    0.537601
O       2.533289   -1.727284    0.629772
C       1.124287   -1.801702    0.276332
C       0.697644   -0.590943    1.156749
O       0.341223   -0.700043    2.477904
H       0.810070    2.097215    0.224143
H      -0.461423    1.997377   -1.002670
H      -0.889291    1.985773    0.705276
H      -1.015696   -0.357703   -0.249881
H       1.604840    0.217658   -2.369943
H       2.869482    0.440870    0.728701
H       0.651956   -2.775025    0.151412
H       0.294369    0.182112    2.862293
