16

O       0.193521    1.407822   -0.105009
C       0.103200    0.027904   -0.050720
C       0.000788   -0.655213    1.351530
N      -1.371429   -0.011977    1.443880
C      -1.319434   -0.619820    0.051392
C      -0.648441   -1.897033    0.634519
O       0.115172   -2.640895   -0.286086
C      -1.469910   -2.760552    1.474291
C      -2.096812   -3.526818    2.158294
H      -0.444092    1.728734    0.550870
H       0.795181   -0.408280   -0.765270
H       0.701828   -0.643951    2.187718
H      -1.985143   -0.561344    2.050652
H      -2.162496   -0.565422   -0.638315
H       0.453785   -3.421276    0.165060
H      -2.664151   -4.196370    2.757253
