15

O      -0.033250   -0.028490    0.242963
C      -0.051041    1.148761    0.003417
N      -1.167729    1.957473   -0.163186
C      -0.747115    3.339571   -0.065522
C       0.006344    3.725649    1.232527
C       1.250868    4.129240    0.458863
C       1.242473    2.812138    1.158724
N       1.119909    2.015791   -0.107626
C       0.652918    3.312335   -0.724751
H      -2.053258    1.618202    0.181298
H      -1.469980    4.061040   -0.441813
H      -0.380940    4.117036    2.163433
H       1.913131    4.978672    0.512599
H       1.789803    2.454964    2.019624
H       0.805798    3.434602   -1.794600
