20

C      -0.433564    1.381921    0.104492
C      -0.027434   -0.072208    0.003666
C      -0.648869   -1.086929    0.908588
N       0.708053   -0.603946    1.159609
C       1.805779   -1.549614    0.938196
C       1.810461   -2.256899   -0.390054
C       1.139470   -1.796084   -1.442806
C       0.336133   -0.526347   -1.410740
O      -0.827137   -0.615167   -2.237015
H       0.407837    2.036440   -0.150498
H      -1.250542    1.593313   -0.592267
H      -0.755466    1.626483    1.119389
H      -1.395237   -0.781826    1.637804
H      -0.767343   -2.101852    0.532172
H       2.747118   -0.995303    1.063429
H       1.781052   -2.281678    1.755613
H       2.397572   -3.169454   -0.464222
H       1.155512   -2.311298   -2.399525
H       0.922324    0.274682   -1.882908
H      -1.399442   -1.285271   -1.845998
