19

C       0.222430    1.575362   -0.343025
C       0.043875    0.101208   -0.044347
C       1.214959   -0.851377   -0.084336
C       0.533480   -0.554874    1.229066
C       1.254352    0.229827    2.328910
C       0.195920    0.929281    3.193839
O      -0.031300    2.107834    3.157999
C       2.071779   -0.640282    3.168424
C       2.701524   -1.357120    3.899747
H       1.214850    1.935712   -0.057835
H       0.108062    1.759530   -1.416542
H      -0.514076    2.186951    0.187122
H      -0.896125   -0.303919   -0.410823
H       1.090018   -1.837043   -0.518628
H       2.199109   -0.419936   -0.240631
H      -0.093721   -1.347701    1.627536
H       1.871593    1.018161    1.887758
H      -0.375316    0.238440    3.852653
H       3.278170   -1.986932    4.531250
