18

C       0.132865    1.493133    0.086934
C      -0.053761   -0.029444   -0.048722
C      -1.535444   -0.422311   -0.016352
C       0.637888   -0.538564   -1.277738
C       0.139499   -1.176192   -2.360727
O       1.194233   -1.431205   -3.229463
C       2.260605   -0.915817   -2.584240
O       3.443495   -1.015430   -3.188212
N       2.022896   -0.376954   -1.440098
H       1.192408    1.756495    0.050295
H      -0.377354    2.019414   -0.727476
H      -0.283520    1.848300    1.035071
H       0.447065   -0.496822    0.810642
H      -2.080318    0.029728   -0.853101
H      -1.665442   -1.507682   -0.072529
H      -2.003602   -0.073731    0.908785
H      -0.828261   -1.515152   -2.681797
H       3.318890   -1.469012   -4.030539
