21

C       0.055598    1.414543   -0.225072
C       0.179003   -0.064181    0.169226
C       0.712806   -0.214487    1.600934
C      -1.187357   -0.738244    0.059667
C      -1.968577   -1.205721   -1.144460
C      -1.179064   -2.089340   -2.160139
O       0.191160   -2.217756   -1.757011
C      -0.800993   -3.026309   -1.110177
C      -1.569149   -2.195636   -0.035164
H       1.025059    1.919312   -0.158555
H      -0.311424    1.521259   -1.250845
H      -0.640561    1.946024    0.436176
H       0.875909   -0.547140   -0.512469
H       0.040418    0.258271    2.328088
H       0.814162   -1.268968    1.876802
H       1.695347    0.257877    1.703652
H      -1.890106   -0.254160    0.744689
H      -2.964048   -0.842385   -1.367903
H      -1.409279   -2.231154   -3.209109
H      -0.655305   -4.099714   -1.115210
H      -2.225812   -2.671987    0.682321
