19

O       0.004403   -0.041764   -0.146531
C      -0.012897    1.152026    0.034750
C      -1.335880    1.906415    0.220840
O      -1.259596    3.098502    0.988557
C      -0.047283    3.841763    0.860164
C       0.272781    4.218570   -0.604316
C       1.139981    3.043905   -1.143009
C       1.224837    2.032001    0.037581
C       1.138534    2.958241    1.269849
H      -1.724376    2.115238   -0.792136
H      -2.052834    1.242777    0.709688
H      -0.191985    4.712984    1.502068
H      -0.648186    4.370902   -1.172505
H       0.826163    5.161246   -0.633544
H       0.728333    2.589875   -2.048688
H       2.150143    3.382949   -1.389720
H       2.109400    1.394634   -0.005141
H       2.056933    3.547096    1.373478
H       0.953482    2.433778    2.210944
