17

C       0.195807    1.243340   -0.213574
N      -0.341491   -0.008860    0.315554
C       0.435795   -0.574299    1.369403
C       0.285789   -2.055721    1.651179
C      -0.674208   -2.883872    0.862261
O      -1.365116   -3.729312    1.374121
C       1.563031   -1.512819    0.991969
C       1.847658   -1.782497   -0.390577
N       2.122622   -1.990097   -1.494777
H       1.155706    1.049059   -0.700427
H      -0.489457    1.634502   -0.969324
H       0.348939    2.019604    0.554756
H      -1.301012    0.114621    0.619182
H       0.652002    0.044899    2.246156
H       0.386991   -2.375467    2.682149
H      -0.713891   -2.667774   -0.221890
H       2.443481   -1.507993    1.625598
