21

C       0.064559    1.398119   -0.304385
C       0.114420   -0.074805    0.059798
O       1.162097   -0.657002    0.233391
C      -1.220393   -0.787311    0.150482
C      -1.743564   -1.396062   -1.199112
C      -2.143403   -2.680227   -0.421929
C      -1.837987   -4.023046   -1.065210
O      -2.144621   -5.118014   -0.215674
C      -1.244575   -2.210272    0.758392
H       1.069821    1.772406   -0.501263
H      -0.575626    1.560809   -1.178605
H      -0.379287    1.966019    0.522079
H      -1.975075   -0.125243    0.585505
H      -2.530443   -0.849515   -1.722815
H      -0.919592   -1.585022   -1.895289
H      -3.200275   -2.652041   -0.138127
H      -2.450997   -4.161546   -1.963453
H      -0.782439   -4.046633   -1.384032
H      -1.570973   -5.057225    0.555165
H      -0.239981   -2.643751    0.719029
H      -1.639826   -2.309508    1.771482
