22

C      -0.672435    1.199059   -0.086381
C      -0.043297   -0.184202    0.037259
C       1.204071   -0.412791   -0.876601
C       2.089109   -0.281193    0.368893
C       0.869041   -0.369797    1.293430
N       3.384815   -0.933594    0.551325
C       3.298108    0.547400    0.587556
C       4.059998    1.221313   -0.528441
O       5.458100    1.046458   -0.370658
H       0.083587    1.986728    0.012536
H      -1.158591    1.326488   -1.059723
H      -1.427166    1.362724    0.690610
H      -0.814097   -0.952470   -0.064713
H       1.250833   -1.417020   -1.306731
H       1.354504    0.317455   -1.676714
H       0.783229    0.389778    2.076682
H       0.763049   -1.358904    1.751396
H       3.456745   -1.307784    1.494864
H       3.397239    1.022143    1.563126
H       3.716769    0.827571   -1.496923
H       3.878348    2.301540   -0.522616
H       5.590031    0.093764   -0.291161
