16

O       0.074232    0.001346   -0.522035
C       0.024139    1.109884   -0.047025
C       1.229347    1.975518    0.083801
C       1.261283    3.471503   -0.166672
C      -0.010035    4.172726    0.332112
C       0.321968    3.669540    1.786996
C      -0.683224    2.930337    2.538843
N      -1.487534    2.348577    3.131976
C       1.549203    2.927717    1.222674
H      -0.937788    1.532482    0.304472
H       2.118560    1.468280   -0.280495
H       1.952001    3.885020   -0.890237
H       0.048796    5.259846    0.269288
H      -0.960104    3.848236   -0.094900
H       0.650047    4.512823    2.399969
H       2.488406    2.833387    1.752784
