20

C      -0.106136    1.354247    0.195054
C       1.298099    1.974377    0.102721
C       2.269060    0.808565    0.409993
C       2.650790    0.666395    1.914899
C       2.029256   -0.638236    2.342117
C       1.410208   -1.259957    1.341686
C       1.469569   -0.498042    0.040861
C       0.082457   -0.019254   -0.466531
H      -0.393844    1.226974    1.245419
H      -0.878257    1.962222   -0.285303
H       1.465725    2.337147   -0.918855
H       1.441289    2.828091    0.772315
H       3.176295    0.902194   -0.190880
H       3.738990    0.658251    2.061150
H       2.277387    1.508132    2.514121
H       2.100555   -1.009540    3.359424
H       0.894629   -2.212087    1.422327
H       1.970844   -1.092621   -0.731910
H      -0.716870   -0.728603   -0.230922
H       0.103671    0.095606   -1.557062
