22

C      -0.100504    1.598964    0.267068
C      -0.118870    0.068258    0.209988
C      -1.485834   -0.552381   -0.168968
C      -1.921073   -0.162404   -1.588869
C      -1.460041   -2.048623    0.029089
C      -1.427540   -3.027800   -0.941395
N      -1.383017   -4.251384   -0.318399
C      -1.388889   -4.078458    1.041174
C      -1.434794   -2.727538    1.286960
H       0.872175    1.964150    0.612197
H      -0.289922    2.051827   -0.711141
H      -0.860704    1.977933    0.960234
H       0.635454   -0.289667   -0.503335
H       0.179639   -0.330179    1.186499
H      -2.227882   -0.139374    0.530825
H      -2.039073    0.919910   -1.688211
H      -1.178717   -0.482192   -2.329811
H      -2.876592   -0.628666   -1.847045
H      -1.438845   -2.958530   -2.016762
H      -1.362619   -5.137991   -0.789658
H      -1.365603   -4.923447    1.710535
H      -1.456073   -2.264272    2.262475
