19

C      -0.105552    1.463130   -0.016660
C       0.042123   -0.036463   -0.045847
O      -1.097927   -0.620973   -0.614311
C      -1.405003   -1.959422   -0.241651
C      -1.057892   -2.233636    1.211623
O       0.339191   -2.033456    1.433062
C       0.744216   -0.730831    1.103233
C       1.427486   -0.628021   -0.256969
O       1.581625   -1.813441   -0.970893
H       0.796857    1.938295    0.378294
H      -0.276788    1.841560   -1.029405
H      -0.954308    1.756625    0.609366
H      -2.481043   -2.082318   -0.403618
H      -0.870461   -2.665017   -0.889501
H      -1.639886   -1.579457    1.876374
H      -1.266430   -3.275750    1.468425
H       1.100590   -0.160737    1.959170
H       2.259960    0.064015   -0.369917
H       1.509160   -2.529490   -0.323762
