19

C       0.077305    1.490457   -0.134139
N       1.286540    0.648966    0.016961
C      -0.025079    0.025665    0.012572
C      -0.614247   -0.807038    1.151380
N      -1.398944   -1.550487    0.127133
C      -0.602881   -0.997714   -0.976202
C      -1.235450   -0.637803   -2.333146
O      -0.177294   -1.310475   -3.050793
C       0.353791   -1.864939   -1.834235
H      -0.137263    2.137129    0.712577
H      -0.133062    1.929961   -1.105896
H       1.741948    0.529483   -0.886016
H       0.148842   -1.397708    1.673914
H      -1.231542   -0.285169    1.889725
H      -1.379646   -2.561405    0.208328
H      -2.214943   -1.108880   -2.489285
H      -1.299922    0.425629   -2.592974
H       1.432115   -1.689403   -1.729614
H       0.160886   -2.945248   -1.749820
