21

C      -0.175887    1.600564   -0.051266
C       0.158096    0.109574    0.027665
C       1.437903   -0.648048   -0.272892
C       2.760728   -0.107216    0.345290
O       3.973505   -0.680664    0.002835
C       2.648416    1.196793    1.072809
C       2.132021   -0.086847    1.713010
C       0.816005   -0.688357    1.125151
C       0.152782   -1.833740    1.836227
H       0.431636    2.125456   -0.794855
H      -1.222588    1.724796   -0.346053
H      -0.054379    2.107545    0.908794
H      -0.663194   -0.487067   -0.372131
H       1.467673   -1.448419   -1.003845
H       4.313421   -0.218601   -0.772485
H       3.596333    1.503171    1.508449
H       2.021962    2.019446    0.760963
H       2.545577   -0.440253    2.648913
H      -0.362752   -1.495551    2.744504
H      -0.589026   -2.320193    1.194415
H       0.884692   -2.592676    2.137634
