18

C      -0.087937    1.548393   -0.122637
C       0.104099    0.030754   -0.004027
N       0.707815   -0.596151   -1.163007
C       0.070997   -0.660860   -2.476486
C       1.234004   -1.261269   -3.339717
N       2.455433   -1.190148   -2.500076
C       2.042839   -0.826705   -1.341075
C       0.963803   -2.653303   -3.729930
N       0.724721   -3.740865   -4.038423
H       0.869533    2.053866   -0.281799
H      -0.752542    1.806966   -0.952376
H      -0.535670    1.942112    0.794971
H       0.742925   -0.197243    0.855753
H      -0.861500   -0.452539    0.190443
H      -0.822416   -1.291201   -2.463451
H      -0.211762    0.335905   -2.837675
H       1.382637   -0.687515   -4.259707
H       2.710608   -0.711943   -0.491415
