23

C      -0.678998    1.482361   -0.502647
C      -0.318531    0.007863   -0.376462
C       0.995487   -0.547835   -1.070407
C       1.893685    0.394379   -1.861280
C       1.485049   -0.978148    0.326976
C       2.431407   -2.081333    0.676083
O       1.523233    0.222815    1.125308
C       0.262181   -0.460977    0.972799
C      -0.477001   -0.851311    2.212054
H       0.132925    2.114213   -0.133880
H      -0.882754    1.756845   -1.543015
H      -1.578346    1.714257    0.079025
H      -1.173085   -0.616120   -0.661093
H       0.745093   -1.427309   -1.674112
H       2.225406    1.229318   -1.238960
H       2.784268   -0.130661   -2.224792
H       1.374974    0.802025   -2.735344
H       3.451555   -1.834736    0.359840
H       2.447888   -2.253005    1.755851
H       2.142130   -3.012105    0.176758
H      -0.942336    0.023640    2.680501
H      -1.271380   -1.568365    1.979377
H       0.199550   -1.302357    2.943136
