20

C      -0.103373    1.325342    0.155068
O      -0.106739   -0.018898   -0.271592
C      -1.346741   -0.662312   -0.087293
C      -1.205952   -2.113549   -0.532949
C      -0.815078   -2.539900    0.830605
C      -1.544153   -1.240282    1.346693
C      -2.834086   -2.078548    1.228055
C      -4.160571   -1.496592    0.770625
N      -2.113327   -3.001955    0.273521
H       0.885155    1.732098   -0.070786
H      -0.862151    1.921878   -0.375156
H      -0.285578    1.421362    1.235794
H      -2.152673   -0.041545   -0.504628
H      -0.884911   -2.486080   -1.496301
H      -0.042166   -3.191465    1.213646
H      -1.307719   -0.638382    2.222692
H      -2.986895   -2.660943    2.143607
H      -4.081405   -0.965089   -0.180669
H      -4.892868   -2.299963    0.642137
H      -4.551901   -0.799955    1.520462
