19

O       0.061351    1.519547    0.419005
C       0.046765    0.137122    0.695721
C      -1.198424   -0.553423    0.153635
C      -2.435613    0.218275   -0.018113
O      -1.579552   -0.050750   -1.149594
C      -1.213554   -2.045308    0.303595
C      -2.097031   -2.902482   -0.589009
C      -0.608784   -2.897851   -0.793870
O      -0.020505   -2.323462   -1.919091
H      -0.096010    1.600402   -0.530204
H       0.926458   -0.374264    0.274335
H       0.085877    0.024391    1.784870
H      -3.388718   -0.304997   -0.033972
H      -2.457625    1.261818    0.282460
H      -1.065847   -2.378637    1.327781
H      -2.577250   -3.775451   -0.160712
H      -2.687772   -2.379138   -1.334648
H      -0.049347   -3.778406   -0.495810
H      -0.565240   -1.572480   -2.185782
