18

C       0.077775    1.454111    0.134188
C       1.304684    0.632783   -0.042255
N      -0.047197   -0.010069   -0.005219
C      -0.204948   -0.509234   -1.422450
C       0.456654    0.483962   -2.398308
C       1.395240   -0.512023   -3.142589
C       2.678735    0.239520   -2.656246
C       1.698387    0.300996   -1.462065
C       1.157937   -1.154078   -1.749358
H      -0.177624    1.829630    1.121948
H      -0.239301    2.095851   -0.682538
H       1.969867    0.418649    0.788680
H      -1.174087   -0.984485   -1.575598
H       0.101380    1.437316   -2.790064
H       1.222751   -0.963831   -4.118907
H       3.583202   -0.362428   -2.524515
H       2.913271    1.185972   -3.153296
H       1.597284   -2.068472   -1.349354
