19

C       0.012642    1.519459    0.030273
C      -0.105385    0.011368    0.006199
C      -0.898270   -0.721463    1.031047
N       0.563149   -0.688762    1.112416
C       1.317274   -1.896372    0.749040
C       2.134395   -1.737575   -0.535424
O       3.239123   -2.221025   -0.682833
N       1.489445   -1.017082   -1.501682
C       0.088105   -0.641491   -1.361300
H       0.959067    1.836211   -0.421981
H      -0.806692    1.986748   -0.527914
H      -0.009745    1.887554    1.058388
H      -1.420481   -0.177424    1.813936
H      -1.375247   -1.655327    0.734527
H       2.017385   -2.145188    1.548825
H       0.658551   -2.768410    0.607342
H       1.940655   -0.981320   -2.403090
H      -0.570769   -1.513146   -1.477037
H      -0.165430    0.060077   -2.159774
