23

C      -0.049953    1.539006   -0.178074
C      -0.052576    0.013163    0.025509
C       0.706601   -0.435145    1.250701
C       0.088634   -0.900087    2.343017
C       0.800605   -1.364561    3.558506
C       1.860731   -2.454222    3.438407
C       2.272786   -1.027749    3.671878
C       2.870069   -0.161329    2.579732
C       2.219449   -0.372432    1.198946
H       0.966571    1.934528   -0.272621
H      -0.595450    1.812272   -1.087064
H      -0.525031    2.042860    0.669443
H      -1.088809   -0.336765    0.093138
H       0.377914   -0.462594   -0.867471
H      -0.997695   -0.961211    2.356778
H       0.213792   -1.370937    4.471543
H       1.963785   -3.154916    4.260266
H       2.005983   -2.894112    2.457819
H       2.633351   -0.799244    4.671011
H       2.736534    0.888346    2.872020
H       3.951269   -0.327765    2.504398
H       2.601215   -1.298988    0.746636
H       2.544774    0.428024    0.524690
