16

N      -0.018445   -1.127828    0.139311
C       0.003134    0.026550    0.079763
C       0.009014    1.464662   -0.039623
C      -0.985077    2.115593   -1.015237
N      -0.324200    3.267695   -1.663674
C      -0.025312    4.428676   -0.821166
C       1.025505    3.407965   -1.074264
C       1.259815    2.305611   -0.066227
N       0.453997    2.214181    1.145883
H      -1.249301    1.392553   -1.792375
H      -1.913378    2.420462   -0.519181
H       0.005389    5.374735   -1.355270
H      -0.472043    4.506297    0.167827
H       1.843111    3.616602   -1.758010
H       2.251524    1.872294    0.004145
H      -0.122883    3.035352    1.301810
