17

C      -0.013528    1.434445   -0.210048
C       0.276741   -0.037387   -0.054035
O       0.969193   -0.531279    0.795684
O      -0.359733   -0.745322   -1.025252
C      -0.156033   -2.185930   -1.043044
C      -1.557154   -2.811157   -1.057950
O      -2.321694   -2.406015   -2.167759
C       0.650167   -2.539609   -2.204519
C       1.319828   -2.860415   -3.148184
H       0.445088    1.983000    0.611452
H       0.387628    1.789172   -1.163926
H      -1.092600    1.609374   -0.224835
H       0.365944   -2.461411   -0.121656
H      -1.461906   -3.899526   -1.111482
H      -2.045490   -2.555714   -0.104211
H      -2.309433   -1.442355   -2.180166
H       1.909801   -3.142577   -3.985173
