15

C       0.072011    1.415919   -0.061305
N      -0.066512   -0.007888    0.108000
C      -1.261253   -0.651991    0.055115
C      -2.488075   -0.077107    0.025377
O      -3.626478   -0.845402    0.012245
C      -3.478352   -2.171969    0.016505
N      -2.382726   -2.833922    0.019048
C      -1.174691   -2.133878    0.023018
O      -0.091341   -2.688301   -0.005664
H       1.129166    1.682574   -0.017111
H      -0.335439    1.767395   -1.022071
H      -0.445172    1.958685    0.741127
H       0.719885   -0.624659   -0.036757
H      -2.714646    0.978141    0.020178
H      -4.444318   -2.668648    0.015153
