16

C       0.063248    1.519001   -0.085022
C       0.008415    0.006139    0.082123
O       0.596208   -0.427075    1.292530
C      -1.471490   -0.553578    0.048779
N      -2.161583   -0.100825    1.258648
C      -2.179141   -0.043572   -1.138870
N      -2.717716    0.366654   -2.074081
C      -1.411455   -2.034468   -0.051704
N      -1.376644   -3.188942   -0.077355
H       1.100134    1.850083    0.017979
H      -0.299192    1.826447   -1.068292
H      -0.552202    2.010715    0.674677
H       0.553795   -0.489061   -0.727364
H       0.531208    0.291582    1.930514
H      -3.133508   -0.394362    1.243308
H      -1.717048   -0.557137    2.050565
