20

C       1.117892    0.002309    0.450392
C       0.033202   -0.073494   -0.625757
C      -1.378164   -0.303043   -0.110135
C      -2.466856   -0.278656   -1.166535
O      -2.470630    0.938857   -1.908899
C      -3.074391    1.999527   -1.323311
N      -3.036795    3.125716   -1.889942
C      -1.666104   -1.029991    1.135226
O      -1.745218    0.398190    1.092738
H       2.067629    0.314463    0.007851
H       0.845020    0.726532    1.222171
H       1.285557   -0.965576    0.933555
H       0.018949    0.856385   -1.204954
H       0.263404   -0.871200   -1.344217
H      -2.300502   -1.068236   -1.905281
H      -3.443470   -0.442872   -0.694710
H      -3.560062    1.754926   -0.371232
H      -3.551920    3.806586   -1.335493
H      -2.617884   -1.547279    1.254324
H      -0.848937   -1.431699    1.729348
