16

C       0.090109    1.589932   -0.141056
C       0.073382    0.083385    0.025173
N       1.023036   -0.743593   -0.856639
C       1.210977   -1.692525    0.330007
C       2.269389   -0.733908    0.876145
C       2.350480   -0.158022   -0.484340
O       3.115757    0.464768   -1.150569
C       0.720320   -0.631630    1.218590
O       0.263669   -0.781481    2.500092
H       1.074670    2.020985    0.058917
H      -0.194719    1.859803   -1.162439
H      -0.633434    2.047053    0.542009
H      -0.935822   -0.312147   -0.130137
H       1.184093   -2.770177    0.287325
H       2.999177   -0.882699    1.660973
H       0.418793    0.036977    2.985637
