13

N      -0.211936    1.285258    0.176989
C      -0.079364    0.003626   -0.237749
O       0.494295   -0.400806   -1.208720
O      -0.762791   -0.818729    0.662770
C      -0.766408   -2.135121    0.387772
N      -0.137094   -3.061943    1.021866
C      -0.563409   -4.228840    0.391236
C      -1.434303   -3.914164   -0.593498
O      -1.581325   -2.549733   -0.601205
H       0.345969    1.979382   -0.288144
H      -0.580254    1.482592    1.091112
H      -0.206104   -5.198839    0.696944
H      -1.998645   -4.461714   -1.327547
