17

C       0.198691    1.374925   -0.230588
N       0.047767   -0.067314   -0.140307
C      -1.049029   -0.665672   -0.099991
C      -1.330348   -2.152888    0.099857
O      -0.775576   -2.722871    1.254264
C      -2.830807   -1.774045    0.224808
N      -2.455017   -0.376498   -0.088380
C      -3.278888    0.694389   -0.311140
O      -2.939745    1.819640   -0.597012
H       0.887779    1.599103   -1.052066
H      -0.739995    1.915042   -0.380723
H       0.682565    1.729424    0.687271
H      -1.116805   -2.749988   -0.797057
H       0.122855   -2.377907    1.326725
H      -3.506374   -2.227075   -0.504004
H      -3.211269   -1.902938    1.240802
H      -4.340382    0.397140   -0.201738
