18

C      -0.038836    1.496934    0.084170
C      -0.010242   -0.006241    0.073381
C       0.796168   -0.777949   -0.989006
C       1.708991   -1.416129   -0.012728
C       0.773951   -0.918043    1.118768
C      -0.269393   -1.977009    0.653893
C      -1.278949   -0.870084    0.286805
O      -1.990692   -0.370020    1.401162
N       0.579545   -2.217164   -0.581279
H       0.974245    1.911877    0.124265
H      -0.522897    1.887314   -0.819392
H      -0.598149    1.862108    0.950044
H       0.918794   -0.568714   -2.045004
H       2.744646   -1.726764   -0.076591
H       1.007813   -0.623308    2.136868
H      -0.545025   -2.889969    1.181983
H      -1.931656   -1.043836   -0.580784
H      -2.633063   -1.033759    1.671353
