18

C       0.009097    1.533443    0.042136
C       0.017637    0.018380   -0.052445
C       0.780032   -0.507033   -1.266890
O       0.857513   -1.926043   -1.244894
C       1.496412   -2.385808   -0.076957
C       0.762972   -1.881625    1.177309
O       0.641581   -0.473151    1.147931
C      -0.556921   -2.536651    1.330451
N      -1.582799   -3.050848    1.464185
H       1.030090    1.924577    0.086370
H      -0.495112    1.967053   -0.826556
H      -0.519685    1.851418    0.943876
H      -1.011951   -0.367516   -0.094034
H       0.266068   -0.238306   -2.193710
H       1.792678   -0.070808   -1.282411
H       1.503897   -3.477994   -0.116323
H       2.533916   -2.018392   -0.023734
H       1.356679   -2.117119    2.067500
