20

C      -0.071796    1.533547   -0.008241
C      -0.013441    0.016621    0.013214
O      -1.341015   -0.479325   -0.015108
C      -1.465106   -1.832365   -0.000569
C      -0.483080   -2.799607    0.037904
N      -1.134289   -4.021534    0.036259
C      -2.492325   -3.843865   -0.001106
C      -3.442289   -4.996207   -0.009011
C      -2.729002   -2.486474   -0.025454
H       0.939005    1.951884    0.012838
H      -0.575034    1.886397   -0.912811
H      -0.621608    1.909655    0.859082
H       0.545021   -0.367745   -0.854539
H       0.498485   -0.344452    0.918846
H       0.590315   -2.736090    0.064798
H      -0.672511   -4.912986    0.059881
H      -3.349696   -5.616221    0.891760
H      -4.470179   -4.629536   -0.052004
H      -3.289066   -5.653458   -0.874342
H      -3.692878   -2.003429   -0.057205
