19

C       0.071871    1.555428    0.009455
C       0.009514    0.039555    0.002110
C       1.090570   -0.690376   -0.765400
C       1.102179   -0.698076    0.745432
C      -1.352295   -0.605764    0.009232
C      -2.527886   -0.050209    0.775783
C      -2.538929   -0.043445   -0.735063
H       1.112150    1.894121    0.002609
H      -0.417109    1.988014   -0.870375
H      -0.402474    1.978768    0.901703
H       0.821886   -1.607815   -1.278600
H       1.841204   -0.099750   -1.280300
H       1.860672   -0.112650    1.254728
H       0.841387   -1.620722    1.253340
H      -1.291061   -1.691725    0.003903
H      -3.174819   -0.748341    1.295774
H      -2.413010    0.902094    1.281138
H      -2.431403    0.913346   -1.233518
H      -3.193418   -0.736958   -1.251767
