16

C       0.381884    1.353733    0.025875
N       0.062389   -0.056732   -0.017501
C      -0.385365   -0.806944   -1.045807
N      -0.552375   -2.058750   -0.670464
C      -0.176551   -2.028756    0.640823
N       0.203962   -0.835446    1.080551
C      -0.181847   -3.209090    1.526877
C      -0.975602   -4.403870    1.203457
O       0.436391   -4.399489    1.018397
H       1.433857    1.494293    0.286159
H       0.191081    1.786816   -0.957575
H      -0.239114    1.857470    0.770641
H      -0.572087   -0.399734   -2.028665
H       0.047308   -2.983846    2.566344
H      -1.344369   -5.032246    2.013491
H      -1.562999   -4.403923    0.287938
