19

O      -0.061333    1.444970   -0.043892
C       0.009749    0.028000    0.001337
C      -1.416613   -0.512383    0.051759
C      -1.415606   -2.041884   -0.067779
C      -0.601985   -2.481017   -1.301040
O       0.721086   -1.948350   -1.250932
C       0.721574   -0.531436   -1.238485
C      -0.508764   -3.933342   -1.409305
C      -0.472020   -5.131402   -1.484154
H       0.832920    1.794946    0.023634
H       0.555317   -0.312299    0.896148
H      -1.907831   -0.191272    0.975308
H      -1.976846   -0.067013   -0.780855
H      -0.961844   -2.499180    0.818308
H      -2.436130   -2.428733   -0.149239
H      -1.105470   -2.091553   -2.204694
H       0.229659   -0.125284   -2.138590
H       1.773934   -0.228207   -1.260250
H      -0.428822   -6.189952   -1.558061
