19

O      -0.033757   -0.006328   -0.337319
C      -0.007666    1.190592   -0.155480
C      -1.232719    2.080753    0.119909
C      -0.672649    3.506153    0.276831
C       0.827236    3.355175    0.084656
C       1.168460    2.073587   -0.151628
C       1.765566    4.483316    0.153138
C       1.384757    5.870048   -0.350709
C       1.550100    5.643406    1.117314
H      -1.941242    1.988550   -0.708190
H      -1.746976    1.722406    1.016224
H      -1.092728    4.200151   -0.460525
H      -0.899029    3.934652    1.260154
H       2.171629    1.702537   -0.321910
H       2.801777    4.203449   -0.006761
H       2.149709    6.422341   -0.884227
H       0.382077    6.009152   -0.737500
H       0.660703    5.627316    1.736217
H       2.430783    6.037010    1.611587
