18

C       0.574650   -0.905224    0.839515
C       0.280132    0.183572    0.420800
C      -0.089141    1.493913   -0.104951
C      -0.914946    2.349493    0.912169
C       0.083348    3.290499    1.566768
C       1.361923    2.701687    2.111528
C       1.344369    3.310328    0.730415
C       1.150086    2.381938   -0.457415
H       0.834457   -1.866154    1.208928
H      -0.685177    1.322615   -1.007694
H      -1.661482    2.936207    0.364954
H      -1.452796    1.713969    1.621318
H      -0.299383    4.197739    2.021426
H       1.868092    3.265266    2.888112
H       1.447649    1.625672    2.215271
H       1.892119    4.232199    0.567924
H       2.026243    1.768633   -0.686048
H       0.923509    2.976800   -1.349491
