18

O       0.113647    1.345020    0.090034
C       0.059617   -0.032468    0.070062
C       0.945676   -0.756247    1.072209
C       0.604983   -2.230930    0.714911
C      -0.403191   -1.999157   -0.414054
O      -0.929868   -3.092282   -1.099280
C      -1.312275   -0.771565   -0.060023
N      -1.362489   -0.321374   -1.503416
C       0.055806   -0.807203   -1.292685
H      -0.501098    1.635725   -0.600444
H       2.001080   -0.513091    0.921761
H       0.686077   -0.490862    2.100815
H       1.471287   -2.801043    0.367344
H       0.161013   -2.777805    1.554266
H      -1.391539   -3.654483   -0.467896
H      -2.179641   -0.720094    0.602505
H      -1.871370   -1.017844   -2.053559
H       0.804252   -0.799101   -2.087416
