22

C      -0.025984    1.492067    0.060569
C       0.079182   -0.010700    0.009147
N      -0.792503   -0.841423    0.880596
C       0.675977   -0.825417    1.096525
C       1.380312   -2.030706    0.505703
C       0.779473   -2.151380   -0.913812
C       0.369670   -0.712081   -1.319022
C      -0.789482   -0.670116   -2.304910
O      -0.382225   -1.344539   -3.489689
H       0.849545    1.963895   -0.399689
H      -0.912613    1.853891   -0.473136
H      -0.092857    1.847739    1.094498
H      -1.230978   -0.237984    1.573181
H       1.057487   -0.357378    1.999717
H       2.457572   -1.826874    0.465235
H       1.240076   -2.941736    1.096449
H       1.468778   -2.599771   -1.631188
H      -0.113709   -2.780351   -0.882717
H       1.225966   -0.202431   -1.782831
H      -1.664573   -1.153711   -1.845357
H      -1.063030    0.374774   -2.526564
H      -1.138198   -1.392849   -4.081671
