16

C      -0.043186    1.473809    0.113209
C      -0.017330   -0.016249    0.034971
C      -0.008154   -0.802064   -1.060589
N       0.088668   -2.157589   -0.728617
C       0.042455   -2.321390    0.660488
N       0.014465   -3.400880    1.338625
C       0.030127   -0.912992    1.189191
N       0.061928   -0.460229    2.394353
O       0.102595   -1.442213    3.360690
H       0.845490    1.861162    0.624435
H      -0.086068    1.919330   -0.884581
H      -0.909160    1.825192    0.685185
H      -0.029907   -0.507524   -2.100536
H      -0.154258   -2.901548   -1.360558
H       0.029219   -4.216487    0.720230
H       0.130791   -0.926531    4.175345
