14

O      -0.857353    1.508236    0.068837
C       0.209210    1.055179    0.389814
C       1.530272    1.828273    0.263076
O       2.547801    1.277776    0.611331
C       1.453602    3.223776   -0.322282
C       2.706817    4.029987   -0.091128
C       2.678394    5.496526   -0.084635
O       2.765008    4.759320    1.135732
H       0.346555    0.035589    0.806931
H       1.261453    3.106039   -1.399414
H       0.573591    3.735785    0.079342
H       3.636403    3.527718   -0.353953
H       3.571283    6.055276   -0.360610
H       1.735880    6.017367   -0.250435
