19

O      -0.099037    1.371209   -0.113182
C      -0.055948   -0.019142   -0.224712
C      -1.305175   -0.787509    0.020576
C      -2.543855   -0.044025   -0.518712
C      -1.903859    0.007621   -1.944547
C      -0.672252   -0.749208   -1.402220
C      -0.217091   -2.137890   -1.652320
C      -0.463628   -2.926045   -0.593611
C      -1.208696   -2.216485    0.537913
H       0.543078    1.736508   -0.731375
H       0.854133   -0.485448    0.153647
H      -3.438730   -0.669790   -0.487247
H      -2.763265    0.916272   -0.046398
H      -2.460193   -0.574065   -2.681579
H      -1.709321    1.003230   -2.352165
H       0.276744   -2.468912   -2.560506
H      -0.155701   -3.964676   -0.514494
H      -0.673232   -2.298652    1.492606
H      -2.199628   -2.661411    0.703891
