20

C       0.228871    1.588656    0.113149
C       0.119968    0.067882    0.099142
C       0.616141   -0.716067   -1.156079
C       1.682853   -0.075657   -2.064158
C       2.733544   -0.616333   -1.062362
N       1.687981   -1.433971   -0.347231
C       1.162175   -0.785173    0.895056
C       2.172172   -0.168362    1.826871
O       1.974323    0.796924    2.521783
H       1.236243    1.941507   -0.124641
H      -0.461208    2.022835   -0.618668
H      -0.021342    1.981782    1.100915
H      -0.903897   -0.211031    0.363018
H      -0.139619   -1.342335   -1.638248
H       1.737952   -0.549886   -3.046355
H       1.637531    1.006027   -2.203673
H       3.526971   -1.239913   -1.482907
H       3.205087    0.157075   -0.443906
H       0.662014   -1.553906    1.505151
H       3.141111   -0.719434    1.865262
