18

O       0.117244    0.203970   -0.590409
C       0.065589    1.322987   -0.139695
N       1.084207    1.947778    0.553447
C       2.487734    1.831764    0.226851
C       1.799964    3.163522    0.180959
C       1.489568    3.881991   -1.143725
C       1.079801    5.260063   -0.682444
C       1.332474    5.454627    0.611371
C       1.955379    4.243187    1.261585
H      -0.848359    1.947019   -0.172687
H       3.150790    1.594720    1.055309
H       2.733566    1.344334   -0.714161
H       2.381179    3.928823   -1.784432
H       0.718117    3.368932   -1.728620
H       0.659541    5.995724   -1.358310
H       1.146647    6.374164    1.154281
H       1.464559    3.938740    2.191720
H       3.012925    4.421138    1.501937
