23

C       0.030414    1.519649    0.144315
C      -0.034065   -0.004795   -0.020326
C       0.692568   -0.528433   -1.242265
C       2.245427   -0.398183   -1.441451
C       1.958882   -1.499259   -2.487843
C       0.909478   -2.059632   -1.503490
O       1.162487   -0.825795   -3.475102
C       0.236896   -0.069874   -2.650997
C      -1.202578   -0.348254   -3.054604
H       1.067086    1.869103    0.193857
H      -0.454413    2.039196   -0.688387
H      -0.470793    1.833455    1.064865
H       0.392207   -0.482320    0.870959
H      -1.083469   -0.325944   -0.060708
H       2.646296    0.548647   -1.812850
H       2.811089   -0.750685   -0.576256
H       2.725405   -2.097249   -2.978284
H       1.347106   -2.562260   -0.638304
H       0.092297   -2.651433   -1.920903
H       0.444386    0.999794   -2.792244
H      -1.492113   -1.383933   -2.856897
H      -1.889514    0.313334   -2.515719
H      -1.327160   -0.163061   -4.125586
