18

N       0.046498   -1.132262   -0.307403
C       0.014880    0.006159   -0.111736
C      -0.005764    1.446965    0.129995
C       1.392510    2.085560    0.026206
C       1.342408    3.595038    0.265194
N       2.681841    4.163145    0.210166
C       3.141735    4.611829   -1.101596
C       2.766757    5.595848   -0.049249
H      -0.691249    1.907410   -0.591631
H      -0.433223    1.624810    1.124002
H       2.065764    1.626797    0.756119
H       1.812245    1.881469   -0.964511
H       0.658906    4.066866   -0.467173
H       0.931176    3.800710    1.261907
H       4.184792    4.415634   -1.330964
H       2.460616    4.505355   -1.945125
H       1.837055    6.144606   -0.192862
H       3.530942    6.131559    0.506122
