14

C       0.066677    1.467892    0.030557
N       0.042346    0.012610   -0.003861
N      -0.036652   -0.581317   -1.175951
C      -0.058083   -1.891402   -1.197873
C      -0.001091   -2.738890   -0.022530
O      -0.019692   -3.960220   -0.017958
C       0.084219   -1.906933    1.194342
O       0.144300   -2.543507    2.366067
N       0.103836   -0.605067    1.187724
H       0.991435    1.814359    0.499441
H       0.010843    1.819031   -0.997618
H      -0.784944    1.841564    0.605167
H      -0.123487   -2.353712   -2.176686
H       0.196113   -1.873341    3.063070
