21

C       0.112362    1.338321    0.123363
O      -0.208736    0.004430   -0.199915
C       0.624948   -0.594367   -1.187350
C       2.013717   -0.938667   -0.644016
C      -0.115856   -1.839012   -1.677504
C      -1.489465   -1.508838   -2.250619
O      -2.098814   -2.689766   -2.792304
C      -3.148105   -3.216532   -2.137270
O      -3.701930   -4.212811   -2.494032
H       1.080414    1.429551    0.635679
H       0.134468    1.978800   -0.772352
H      -0.668653    1.701886    0.795759
H       0.735729    0.110713   -2.030988
H       2.550150   -0.045440   -0.313072
H       1.929390   -1.623917    0.205222
H       2.618589   -1.418919   -1.419338
H       0.483476   -2.340848   -2.444170
H      -0.230021   -2.540500   -0.842450
H      -2.129854   -1.066624   -1.480911
H      -1.408683   -0.796087   -3.077763
H      -3.437222   -2.624005   -1.246360
