19

C       0.080977    1.531803    0.032031
C       0.032523   -0.000982   -0.013965
C      -1.361202   -0.560188    0.001720
C      -1.809686   -2.059729   -0.034543
C      -3.058041   -1.608783   -0.755735
C      -3.021504   -1.656637    0.772232
C      -2.506301   -0.214381    1.022447
O      -3.165067    0.663566    0.083097
C      -2.553161   -0.152952   -0.939630
H       1.116024    1.885849    0.018760
H      -0.437600    1.972203   -0.824755
H      -0.396514    1.918062    0.937435
H       0.549225   -0.360982   -0.914226
H       0.590515   -0.414846    0.837160
H      -1.260000   -2.988968   -0.076800
H      -3.760622   -2.179869   -1.346614
H      -3.695913   -2.264608    1.359120
H      -2.405673    0.192859    2.027918
H      -2.500026    0.316478   -1.921339
