17

C      -0.028856    1.474136   -0.135787
O      -0.004561    0.094146    0.220117
C      -1.207015   -0.553587    0.087035
C      -1.949826   -1.009692    1.157181
O      -1.749718   -0.920175    2.486962
N      -3.015851   -1.653162    0.642241
N      -3.016474   -1.647678   -0.721024
C      -1.915410   -0.984002   -1.065091
C      -1.560217   -0.781867   -2.502869
H       0.966554    1.871264    0.076623
H      -0.247810    1.609907   -1.201803
H      -0.776815    2.024305    0.449742
H      -0.889139   -0.499020    2.608860
H      -3.747128   -2.125799    1.143902
H      -1.699095    0.259532   -2.817049
H      -0.513218   -1.041735   -2.690699
H      -2.196500   -1.410337   -3.129708
