17

C      -0.347956    1.639062   -0.243129
C      -0.005432    0.179416   -0.028375
C       0.762994   -0.574506   -1.211868
O       1.003738    0.138441   -2.394286
C       1.894288   -0.740598   -0.206929
C       3.069811   -1.180186    0.356519
N       3.089350   -0.791832    1.678155
C       1.953148   -0.153746    1.921740
N       1.214316   -0.090667    0.785888
H       0.517967    2.203172   -0.599845
H      -1.141934    1.724101   -0.990724
H      -0.698410    2.100229    0.685074
H      -0.866527   -0.380985    0.348414
H       0.262167   -1.498896   -1.510920
H       1.698802    0.781932   -2.219025
H       3.891601   -1.726469   -0.078496
H       1.659718    0.270139    2.869144
