20

C      -0.543508    1.161171   -0.252466
C       0.268575   -0.114989   -0.129372
C       1.672413   -0.143630   -0.799767
C       2.228255   -0.559282    0.573863
N       0.881276   -0.303234    1.237019
C       0.826809   -1.722095    1.715212
C       2.122568   -2.037681    0.960961
C       2.574761   -3.241784    0.260730
O       3.185571   -2.806584    1.484068
H       0.053002    2.027477    0.049911
H      -0.878195    1.312165   -1.285162
H      -1.426988    1.120355    0.392822
H      -0.350056   -0.976062   -0.416640
H       1.819185   -0.846593   -1.622961
H       2.012536    0.845743   -1.116235
H       3.104301   -0.038001    0.969832
H       0.943456   -1.783877    2.802247
H      -0.075407   -2.270738    1.422408
H       1.991189   -4.159202    0.330474
H       3.197611   -3.153293   -0.628878
