23

C       0.003840    1.560169   -0.054744
C      -0.116480    0.078711    0.316429
C      -1.482751   -0.508225   -0.021211
C      -1.795095   -0.761508   -1.516357
O      -1.962482   -2.179162   -1.293515
C      -1.665489   -2.023917    0.095882
C      -0.862342   -3.042593    0.842870
C      -2.347014   -2.848937    1.137883
C      -2.805285   -2.247545    2.447396
H       0.994504    1.952617    0.193597
H      -0.154256    1.715756   -1.127699
H      -0.738499    2.164004    0.479019
H       0.659057   -0.501129   -0.199687
H       0.073434   -0.046129    1.390351
H      -2.270894    0.056536    0.488350
H      -2.709015   -0.301202   -1.908543
H      -0.964323   -0.554722   -2.203644
H      -0.564494   -3.932464    0.298437
H      -0.142707   -2.697979    1.580369
H      -2.993419   -3.623741    0.732169
H      -2.131557   -1.448076    2.774650
H      -3.810303   -1.819180    2.361856
H      -2.829559   -3.000633    3.242791
