16

C      -0.166611    1.527249    0.047189
C       1.369108    1.556154   -0.185015
N       1.421207    0.152423    0.249425
C      -0.042337   -0.008950    0.254177
C       2.321984   -0.770216   -0.166457
N       3.503485   -0.460124   -0.664856
O       4.078602   -1.732941   -0.899859
C       3.169460   -2.624802   -0.527584
N       2.066683   -2.128493   -0.068223
H      -0.484229    2.064606    0.941568
H      -0.779601    1.842143   -0.796911
H       1.671229    1.689039   -1.231078
H       1.954287    2.238008    0.438558
H      -0.442250   -0.417745    1.186079
H      -0.414234   -0.610063   -0.583473
H       3.428183   -3.668178   -0.639706
