20

N       0.138871    1.034298    0.736116
C       0.011445   -0.038021    0.099112
C      -1.153230   -0.938006   -0.254777
C      -0.077323   -1.778708   -0.979798
O       0.950897   -0.813899   -0.547715
C       0.204552   -3.171865   -0.482861
C      -0.749960   -4.315044   -0.939309
C       0.491030   -5.236955   -1.087766
C       1.385717   -3.968220   -1.107739
H       1.113384    1.340776    0.749838
H      -1.630240   -1.422624    0.599548
H      -1.915417   -0.476377   -0.884035
H      -0.149072   -1.757119   -2.072952
H       0.290409   -3.153280    0.609373
H      -1.540970   -4.620804   -0.250876
H      -1.203862   -4.090828   -1.910604
H       0.657634   -5.837017   -0.188862
H       0.527924   -5.898047   -1.956190
H       1.592572   -3.633580   -2.129502
H       2.326208   -3.990547   -0.554153
