15

O       0.055728    0.041035    0.477786
C      -0.003265    1.137232    0.003594
C      -1.308793    1.910544   -0.148049
C      -1.360698    2.894957   -1.308848
O      -2.337327    3.006070   -2.012068
C      -0.107214    3.654903   -1.535835
C       0.663112    4.227123   -0.336147
C       1.165512    3.011309   -1.024305
O       1.145292    1.751386   -0.395675
H      -2.128457    1.197209   -0.230025
H      -1.454783    2.463503    0.789891
H      -0.072884    4.202621   -2.469711
H       1.184596    5.163338   -0.496809
H       0.224503    4.117853    0.649041
H       2.052145    3.077674   -1.642326
