19

C       0.194314    1.488046   -0.102534
C       0.044572   -0.021337    0.021504
C       1.278432   -0.911618   -0.054245
C       0.566171   -0.759082    1.258506
C       1.132362   -0.012715    2.431375
C       2.290063   -0.563964    3.182257
N       2.431523    0.677371    2.402308
C      -1.162757   -0.551493   -0.564481
N      -2.136082   -0.968162   -1.031569
H       1.099998    1.829314    0.402516
H       0.246475    1.785322   -1.153900
H      -0.658320    2.000778    0.352023
H       1.199528   -1.857520   -0.576311
H       2.219194   -0.393488   -0.211258
H      -0.043443   -1.609951    1.550891
H       0.385054    0.533971    3.003742
H       2.350041   -0.442824    4.259756
H       2.752267   -1.469427    2.797497
H       2.924240    0.471378    1.536860
