17

C      -0.034590    1.444778   -0.000763
N      -0.013972    0.000706    0.000488
C       0.008023   -0.802708   -1.130295
C       0.002163   -2.118006   -0.722407
N      -0.075262   -3.266513   -1.538307
C       0.005992   -2.117689    0.702484
C       0.002018   -0.798898    1.113840
N      -0.055254   -0.216008    2.399710
H       0.957570    1.873185   -0.194481
H      -0.722050    1.807088   -0.770906
H      -0.380498    1.786579    0.976247
H       0.019576   -0.366625   -2.116206
H       0.218815   -3.077453   -2.488673
H       0.490334   -4.024970   -1.176544
H       0.006234   -2.982647    1.349280
H      -0.450745   -0.869536    3.064534
H       0.861016    0.054557    2.746683
