21

C       0.070170    1.531214    0.410163
O       0.698395    0.301087    0.086397
C       0.714566   -0.607057    1.141583
C      -0.569592   -1.367503    1.536725
O      -1.734459   -1.086420    1.542704
C       0.222445   -2.673487    1.699395
C       1.368728   -2.005610    0.861003
C       1.265575   -2.377955   -0.620482
C       2.787206   -2.182648    1.392565
H       0.589905    2.036392    1.239298
H       0.127729    2.161132   -0.480205
H      -0.979794    1.383985    0.687250
H       1.156371   -0.161217    2.052735
H       0.501279   -2.853786    2.743105
H      -0.245423   -3.574633    1.296478
H       0.244240   -2.262883   -0.996373
H       1.910819   -1.737033   -1.227176
H       1.568725   -3.419477   -0.771434
H       3.121134   -3.220544    1.284902
H       3.491599   -1.548315    0.843332
H       2.852171   -1.918113    2.453560
