19

C      -0.547388    1.280182    0.239298
C       0.171209   -0.046103    0.002028
C       1.307397   -0.002667   -1.052663
C       2.297302   -1.015879   -0.538324
C       2.029981   -1.399203    0.709003
C       0.827724   -0.678108    1.259323
O       1.279816    0.341523    2.188575
C       0.815627    0.315959    3.448426
O       1.133918    1.117208    4.275947
H       0.143839    2.043058    0.606441
H      -0.995704    1.642412   -0.691203
H      -1.351963    1.175811    0.974999
H      -0.560085   -0.785966   -0.345549
H       0.941763   -0.235970   -2.058860
H       1.770457    0.991971   -1.114933
H       3.139448   -1.362556   -1.127470
H       2.615844   -2.086322    1.307904
H       0.129429   -1.329619    1.799344
H       0.114881   -0.523237    3.632074
