22

C       0.513724   -0.084905   -1.300607
C      -0.101304    0.065049    0.092816
O      -1.465905   -0.342303    0.095544
C       0.669140   -0.648609    1.235893
C       0.681944   -2.174900    1.073110
C       2.110561   -0.088692    1.422166
C       2.183320    1.443832    1.594819
C       2.750630   -0.730102    2.577573
N       3.249086   -1.222976    3.496962
H       0.567696   -1.135532   -1.607284
H      -0.104229    0.446762   -2.028894
H       1.526415    0.327513   -1.351357
H      -0.150468    1.131219    0.335633
H      -1.518391   -1.219399   -0.298061
H       0.111384   -0.413191    2.150822
H      -0.336861   -2.563168    0.986260
H       1.246879   -2.488434    0.188427
H       1.137423   -2.655327    1.942567
H       2.708592   -0.369485    0.544994
H       1.531041    1.773795    2.408505
H       3.203917    1.753948    1.831183
H       1.879639    1.953581    0.678148
