17

O       0.031806    1.430266    0.051225
C       0.024794    0.011504    0.015721
C       0.658876   -0.588741    1.310560
C      -0.539941   -0.726073    2.205729
C      -0.913227   -0.864338    3.500907
O      -2.276779   -0.926443    3.580899
C      -2.772727   -0.825365    2.310723
C      -1.748998   -0.700732    1.431865
C      -1.433770   -0.544881   -0.028851
H      -0.462931    1.703419    0.833130
H       0.592595   -0.251908   -0.880016
H       1.111692   -1.566318    1.100357
H       1.449191    0.067595    1.683769
H      -0.392672   -0.927862    4.441989
H      -3.846701   -0.855471    2.231216
H      -2.083674    0.141641   -0.577463
H      -1.461433   -1.512387   -0.546587
