16

N      -0.025776    0.647929    1.326839
C       0.094525    0.071323    0.196512
O       1.305421   -0.375517   -0.225423
C       1.541577   -0.677497   -1.602660
C       0.895269   -1.985696   -2.041284
C      -0.588209   -1.884677   -2.358700
O      -1.088576   -2.583645   -3.217521
C      -1.437624   -0.919550   -1.621943
C      -1.140151   -0.115383   -0.588411
H       0.886635    0.702838    1.785491
H       1.219211    0.160496   -2.232340
H       2.628404   -0.755248   -1.675841
H       1.387095   -2.378021   -2.936065
H       1.037115   -2.728503   -1.245797
H      -2.458628   -0.913055   -1.993619
H      -1.939258    0.487949   -0.170037
