20

C       0.087607    1.716105    0.037945
C      -0.028398    0.203484   -0.011777
C       1.004165   -0.694074   -0.769772
C       2.034651   -0.439526    0.370194
C       0.657559   -0.726837    1.044197
N       0.444151   -1.839180    0.050058
C       1.006284   -3.096472    0.199269
C       1.314835   -3.810966   -1.106618
O       1.157853   -3.610918    1.290199
H       1.099303    2.075271    0.239440
H      -0.236342    2.152127   -0.913178
H      -0.567460    2.117252    0.818648
H      -1.056334   -0.106952   -0.216079
H       1.169774   -0.782080   -1.844161
H       2.794795   -1.209255    0.512161
H       2.458930    0.560761    0.466424
H       0.427259   -0.860827    2.099113
H       2.267733   -3.450222   -1.511508
H       1.404659   -4.880070   -0.913012
H       0.542779   -3.628213   -1.858380
