16

N       0.085979   -1.288761    0.345472
C       0.060629   -0.133540    0.292344
C      -0.016663    1.297117    0.205169
C       0.521200    2.163169    1.338277
C       1.250352    2.125394    0.032892
N       2.493076    1.422716   -0.002514
C       3.170585    1.340560   -1.293737
C       3.695631    2.224794   -0.216394
H      -0.901720    1.656951   -0.308661
H      -0.053147    3.043502    1.601187
H       0.987461    1.640440    2.164178
H       1.143335    2.990852   -0.627584
H       3.645223    0.388919   -1.510614
H       2.698662    1.822660   -2.147975
H       3.575460    3.298564   -0.348687
H       4.562732    1.931291    0.367458
