16

C       0.072525    1.543539    0.069831
N      -0.126587    0.098687   -0.048450
C       0.599409   -0.499609   -1.153686
C       2.128776   -0.629333   -0.925414
O       2.650768   -0.384518    0.127582
C       0.117829   -1.841272   -1.480787
C      -0.214589   -2.976233   -1.738814
C      -0.606552   -4.246039   -2.028932
C      -0.951834   -5.373495   -2.288452
H       1.122615    1.853505    0.174362
H      -0.349490    2.039002   -0.811895
H      -0.478656    1.901585    0.943219
H       0.169461   -0.356450    0.809522
H       0.468554    0.139657   -2.041278
H       2.704057   -0.992357   -1.804477
H      -1.258305   -6.364802   -2.514270
