22

C      -0.610996    1.668394   -0.008538
C       0.044501    0.292465    0.042391
C      -0.975370   -0.829044   -0.186313
O      -1.557886   -0.814352   -1.480475
C       1.310793    0.097563   -0.856361
C       2.024718   -0.501937    0.359402
C       2.778457   -1.774247    0.406468
N       3.449009   -0.481406    0.668383
C       0.921749   -0.013624    1.302238
H       0.119893    2.461311    0.178197
H      -1.053563    1.865115   -0.992824
H      -1.402538    1.761564    0.745354
H      -0.477626   -1.800961   -0.100950
H      -1.746541   -0.786949    0.600714
H      -2.119609   -0.036347   -1.544982
H       1.179320   -0.534146   -1.738637
H       1.748908    1.052601   -1.167276
H       2.699335   -2.427069    1.272386
H       2.977662   -2.287663   -0.531480
H       3.978342   -0.194573   -0.152416
H       1.213224    0.890295    1.845251
H       0.517978   -0.737905    2.017003
