18

C      -0.035530    1.534296    0.164704
C       0.020048    0.035784   -0.034052
C       0.666314   -0.618340   -1.226148
C       1.325148    0.156938   -2.345509
C       1.363437   -0.680708    0.136503
O       2.500775    0.089896    0.329855
C       1.394125   -1.962772    0.857034
O       2.337690   -2.287078    1.547171
H       0.906669    2.013496   -0.104008
H      -0.836339    1.975704   -0.438025
H      -0.235772    1.771467    1.214226
H      -0.836938   -0.498557    0.370476
H       0.200852   -1.548947   -1.543827
H       1.912541    0.994341   -1.966986
H       2.003976   -0.491035   -2.908692
H       0.574447    0.543806   -3.042787
H       3.055568   -0.441803    0.923503
H       0.505142   -2.614756    0.732679
