19

C      -0.121764    1.495305    0.054369
C       1.403609    1.495811   -0.240960
C       1.488325    0.131970    0.496009
C      -0.039256   -0.039929    0.278488
N       2.403164   -0.884751    0.031207
C       2.518115   -1.413972   -1.214292
C       3.530832   -2.348557   -1.164933
C       3.972981   -2.312035    0.172816
N       3.291079   -1.427075    0.894439
H      -0.356772    2.028859    0.979033
H      -0.786699    1.853689   -0.733061
H       1.603586    1.379348   -1.309957
H       2.014831    2.314328    0.144607
H       1.724463    0.267150    1.551581
H      -0.615768   -0.485597    1.091653
H      -0.246675   -0.590018   -0.643840
H       1.884774   -1.093409   -2.026042
H       3.892279   -2.961716   -1.974435
H       4.756693   -2.890573    0.639840
