19

C      -0.009518    1.521805    0.023217
C       0.005641   -0.016339   -0.000700
C       0.820384   -0.593467   -1.206716
C       1.382331   -1.951946   -0.733429
C       1.543906   -1.778212    0.765273
N       2.177743   -0.489242    1.130614
C       0.713432   -0.637878    1.213143
C      -1.370849   -0.532513   -0.033394
N      -2.452742   -0.940089   -0.053941
H       1.016778    1.879312    0.137549
H      -0.425073    1.924352   -0.904706
H      -0.609950    1.899803    0.855474
H       0.209590   -0.673103   -2.107764
H       1.639553    0.097973   -1.410809
H       0.668360   -2.761434   -0.922208
H       2.318539   -2.205404   -1.239431
H       1.709839   -2.640998    1.401677
H       2.571995   -0.556084    2.065219
H       0.220145   -0.611725    2.178911
