16

O       0.168462    0.085459    0.492069
C       0.155461    1.271599    0.236928
N       1.209595    1.956993   -0.292565
C       1.521064    3.373687   -0.173676
C       2.509744    3.546449    0.983462
O       2.558701    2.534399    1.954775
C       2.970753    1.323624    1.294121
C       2.647930    1.585315   -0.175104
C       3.004255    3.089700   -0.349544
H      -0.741774    1.913615    0.349586
H       0.890754    4.149473   -0.591777
H       2.708985    4.540617    1.364902
H       4.047971    1.153644    1.436012
H       2.402039    0.490388    1.709585
H       3.001118    0.849238   -0.895300
H       3.753857    3.531357   -0.989217
