15

O      -0.043420   -0.014425    0.054700
C       0.013758    1.178352   -0.058872
N      -1.096953    2.063881   -0.258653
C      -0.413309    3.333531   -0.084367
C      -0.339301    4.862410   -0.067319
N       1.156446    4.464312    0.060476
C       0.745916    3.261887    0.936479
C       1.261148    2.115337    0.027715
C       0.885062    3.284618   -0.899177
H      -1.929867    1.828077    0.266219
H      -0.565171    5.403198   -0.990431
H      -0.727378    5.389385    0.808653
H       0.712475    3.331737    2.023968
H       2.231795    1.629279    0.096159
H       0.994709    3.385759   -1.978781
