21

C      -0.430934    1.550532    0.369599
C      -0.099446    0.068314    0.231059
C       0.275175   -0.461487   -1.160601
C       1.578344    0.061219   -1.643376
C       1.620130   -1.026526   -0.594800
C       2.155118   -2.359045   -0.906197
O       2.372994   -2.777898   -2.021393
C       1.263014   -0.496757    0.802490
C       2.251397    0.436933    1.493186
H       0.347840    2.192494   -0.052447
H      -1.366670    1.783567   -0.149853
H      -0.557116    1.828131    1.421492
H      -0.926971   -0.518093    0.640707
H      -0.389694   -1.003736   -1.822658
H       1.882203   -0.283198   -2.625899
H       1.914828    1.060269   -1.383047
H       2.332464   -3.000889   -0.011518
H       1.047056   -1.339844    1.468162
H       2.520701    1.292989    0.867678
H       1.837717    0.827364    2.429081
H       3.176524   -0.096990    1.736268
