21

C       0.228787   -1.294563    1.157094
O      -0.080092   -0.468627    0.055156
C       0.628466   -0.743249   -1.131416
C       2.018195   -0.111694   -1.120778
C       0.641298   -2.212474   -1.618695
O      -0.714171   -2.635496   -1.784300
C      -0.118659   -1.854329   -2.826403
C      -0.222429   -0.376790   -2.418444
C      -1.616613    0.197638   -2.222111
H       0.018287   -2.351359    0.942913
H       1.277612   -1.201629    1.475788
H      -0.410565   -0.970670    1.981786
H       2.629282   -0.507577   -0.302675
H       2.548701   -0.310949   -2.057271
H       1.934705    0.971442   -0.991969
H       1.391580   -2.979947   -1.459860
H      -0.091874   -2.293632   -3.817250
H       0.375547    0.254424   -3.084176
H      -2.217718   -0.469815   -1.602563
H      -1.572134    1.171301   -1.725733
H      -2.117707    0.329855   -3.187385
