17

C      -0.021987    1.458305    0.004807
N       0.000175   -0.005451    0.023190
C      -0.020206   -0.659642   -1.253290
O      -0.054011   -0.009073   -2.283366
C       0.003628   -2.095586   -1.142263
C       0.041234   -2.688044    0.077893
N       0.059263   -2.010140    1.263256
C       0.038376   -0.705963    1.197691
C       0.057433    0.066089    2.486753
H       0.874586    1.867681    0.477446
H      -0.052828    1.755762   -1.041766
H      -0.905165    1.841231    0.522609
H      -0.009783   -2.661082   -2.064870
H       0.059363   -3.771356    0.167032
H       0.088571   -0.647989    3.308114
H       0.929963    0.725145    2.548583
H      -0.831577    0.697173    2.591250
