13

C       0.058592    1.490082    0.022577
C      -0.071037    0.003919    0.005751
C      -1.217700   -0.705698   -0.156466
C      -1.095371   -2.121485   -0.137648
N       0.019652   -2.774585    0.021418
C       1.187421   -2.064729    0.186612
O       2.283128   -2.508300    0.342646
O       1.091836   -0.627404    0.171723
H       0.739362    1.815980   -0.770627
H      -0.911865    1.968712   -0.115739
H       0.491613    1.817901    0.973299
H      -2.170808   -0.215459   -0.292464
H      -1.991329   -2.730229   -0.264312
