19

C      -0.014394    1.370891   -0.101800
O      -0.020691    0.000581    0.224361
C      -1.280253   -0.613260    0.083071
C      -1.719389   -0.950286   -1.377405
C      -1.872875   -2.503470   -1.270989
O      -2.380478   -2.634826    0.067398
C      -1.254694   -2.041890    0.719998
C      -0.079449   -2.786618    0.099714
C      -0.471618   -3.084960   -1.138516
H       0.994935    1.744898    0.087162
H      -0.263644    1.548022   -1.158867
H      -0.725920    1.939326    0.517911
H      -2.049664   -0.008824    0.583972
H      -2.676254   -0.487777   -1.629786
H      -0.971079   -0.643130   -2.111320
H      -2.550605   -2.966396   -1.987095
H      -1.366823   -2.070362    1.802524
H       0.886859   -2.928934    0.560976
H       0.097851   -3.533086   -1.941299
