16

O       0.042323    0.158949   -0.927878
C      -0.018290    1.191532   -0.325132
C      -1.149547    1.943230    0.408705
C      -0.137135    3.123079    0.655114
C       0.082645    3.507021    2.039550
N       0.284032    3.805316    3.138478
C       0.976521    2.265955   -0.002256
C       2.393179    2.027274    0.476980
C       2.160147    2.697097   -0.836627
H      -2.021013    2.193041   -0.199737
H      -1.480363    1.440095    1.320242
H      -0.388105    4.012700    0.071696
H       2.723160    2.628172    1.317810
H       2.727987    0.995781    0.483166
H       2.332441    2.132374   -1.746781
H       2.343133    3.763741   -0.911909
