16

C       0.215304    1.365774    0.458799
C      -0.030208   -0.036316   -0.047339
C       0.522875   -0.497288   -1.329418
O       1.137208   -0.884957   -0.101126
C      -1.248599   -0.720522    0.451495
N      -1.913958   -1.691376   -0.093279
C      -2.927017   -1.973464    0.809961
C      -2.822487   -1.135203    1.867578
O      -1.747609   -0.322444    1.651661
H       1.151444    1.745493    0.044320
H      -0.599817    2.035765    0.167387
H       0.287231    1.376608    1.549653
H       0.014195   -1.292466   -1.868625
H       1.088489    0.209970   -1.935189
H      -3.652675   -2.750049    0.628263
H      -3.372162   -0.977692    2.779225
