15

O       0.060493   -0.030448    0.001765
C       0.004277    1.164711    0.009037
C      -1.235097    2.069909    0.031850
C      -0.728789    3.539100    0.032426
C       0.762233    3.381162    0.009835
C       1.943184    4.073597   -0.003676
C       2.940249    3.052036   -0.023806
N       2.432579    1.827301   -0.022822
N       1.098748    2.053327   -0.002168
H      -1.852820    1.833251   -0.838102
H      -1.827427    1.823801    0.916710
H      -1.089151    4.095682   -0.837845
H      -1.063543    4.086158    0.918816
H       2.092549    5.140890   -0.000121
H       4.013803    3.180749   -0.038833
