20

C      -0.089884    1.514948   -0.096336
C       0.016496   -0.019985    0.032487
C       0.694305   -0.420463    1.359941
C      -1.336261   -0.600088   -0.011422
N      -2.391323   -1.072174   -0.031543
C       0.839531   -0.568074   -1.154167
C       0.799969   -2.080211   -1.468168
C       0.216898   -1.634152   -2.824298
O       0.252238   -0.242164   -2.426253
H       0.909443    1.956693   -0.029577
H      -0.528288    1.786159   -1.058397
H      -0.706015    1.931474    0.704587
H       0.126316   -0.041814    2.213274
H       0.772016   -1.506653    1.457803
H       1.701415    0.005632    1.401633
H       1.852116   -0.147904   -1.066605
H       1.770750   -2.575113   -1.506074
H       0.117726   -2.661146   -0.845731
H       0.854339   -1.818686   -3.696428
H      -0.803709   -1.964421   -3.040705
