20

C       0.067597    1.491186    0.002751
C      -0.051703   -0.046450    0.008357
C      -1.532627   -0.456680   -0.026180
C       0.740045   -0.677963   -1.185681
N       1.946707   -1.253673   -0.571679
C       3.016762   -1.766034   -1.242760
O       3.986189   -2.275137   -0.719096
C       1.799588   -1.256934    0.822967
C       0.687726   -0.629492    1.203940
H       1.116254    1.802844   -0.017094
H      -0.436670    1.920391   -0.870967
H      -0.392280    1.919830    0.899264
H      -2.022102   -0.087359   -0.934768
H      -1.642098   -1.544920    0.003305
H      -2.070745   -0.040570    0.831930
H       0.151914   -1.468020   -1.667550
H       1.005677    0.061566   -1.946273
H       2.902162   -1.660249   -2.339321
H       2.570438   -1.738846    1.405340
H       0.363778   -0.491718    2.226299
