19

C      -0.013464    1.502422    0.091868
C      -0.068476    0.011235    0.010699
C       0.062133   -0.774484   -1.065667
C       0.012971   -2.212579   -0.656601
C       0.889343   -2.682966    0.524396
C      -0.554889   -2.287538    0.733647
C      -0.084528   -0.883581    1.236818
C       1.363184   -1.518074    1.377807
O       1.632583   -2.008378    2.675927
H       0.850949    1.844484    0.676746
H       0.055053    1.956312   -0.900692
H      -0.903499    1.907157    0.590863
H       0.210031   -0.442861   -2.086501
H      -0.229718   -2.988536   -1.373937
H       1.345491   -3.665479    0.524500
H      -1.413470   -2.867225    1.048666
H      -0.493902   -0.467851    2.158631
H       2.194690   -0.900214    1.006138
H       1.767140   -1.248866    3.252265
