18

C       0.130301    1.587998    0.013614
N       1.323430    0.729177    0.049726
C      -0.008283    0.108513   -0.052937
C      -0.462622   -0.678883    1.141884
C      -1.976209   -0.982684    1.347942
C      -1.579014   -2.456108    1.372174
C      -0.880057   -2.829794    0.131181
N      -0.100897   -2.152489    1.187286
H      -0.080732    2.110242    0.943248
H      -0.085005    2.162397   -0.883608
H       1.782947    0.727324   -0.856708
H      -0.293161   -0.292593   -1.023861
H      -0.023385   -0.220262    2.030986
H      -2.357156   -0.603462    2.297556
H      -2.666646   -0.687566    0.550987
H      -1.918855   -3.189319    2.096287
H      -0.583758   -3.866534    0.004921
H      -1.113324   -2.316815   -0.799168
