20

C       0.707308   -0.339022   -1.415994
C       0.033142    0.018564   -0.088673
C      -1.447083   -0.411684   -0.016546
C      -1.646710   -1.908250    0.019225
C      -2.319512   -2.264047    1.113007
C      -2.660705   -1.046581    1.904430
O      -3.293911   -0.965518    2.939118
N      -2.105694    0.010010    1.206796
C      -2.324499    1.385012    1.583277
H       1.734280    0.036274   -1.440923
H       0.750206   -1.421072   -1.574689
H       0.173116    0.101688   -2.265133
H       0.568118   -0.438176    0.751637
H       0.081746    1.103634    0.058656
H      -1.968013    0.013205   -0.892417
H      -1.265550   -2.558656   -0.756670
H      -2.615023   -3.253613    1.430994
H      -2.928165    1.374176    2.493106
H      -1.384576    1.910535    1.789598
H      -2.864107    1.936176    0.801926
