17

O      -0.159905    1.444127    0.418046
C      -0.012212    0.068118    0.215602
C      -0.730245   -0.896795    1.126335
C      -1.221717   -0.666667   -0.287854
C      -2.514318    0.099864   -0.529229
C      -3.711106   -0.705415   -0.331162
C      -4.705369   -1.373673   -0.171707
C      -5.864579   -2.198107    0.039267
O      -6.991813   -1.903189   -0.288635
H       0.318500    1.682652    1.218658
H       0.956180   -0.230558   -0.184855
H      -0.259603   -1.841958    1.372926
H      -1.320818   -0.460081    1.925533
H      -1.036925   -1.464631   -1.000152
H      -2.547104    0.971127    0.134380
H      -2.522574    0.507071   -1.548903
H      -5.646716   -3.162373    0.543638
