15

O      -0.419527    0.094023   -0.595599
C       0.206596    0.627143    0.291160
C       1.123508    1.774925    0.067581
C       1.421328    2.136762   -1.346676
O       2.097656    3.091070   -1.660569
C       1.233478    2.988878    1.026321
C       1.036669    2.554047    2.472892
O       2.071664    1.532629    2.320056
C       2.335304    2.006789    1.013316
H       0.148322    0.259551    1.333821
H       0.986222    1.448690   -2.094147
H       1.178144    3.981834    0.604214
H       1.368124    3.316052    3.184628
H       0.074590    2.139652    2.785611
H       3.347723    2.014365    0.630413
