18

C      -0.024863    1.521303    0.012996
C      -0.017714    0.004828    0.013461
C      -0.860900   -0.725899    1.058317
C       0.644265   -0.741457    1.155097
N       1.405571   -1.907221    0.833002
C       1.442768   -2.531365   -0.391387
O       2.014467   -3.597031   -0.554960
C       0.772260   -1.799993   -1.492425
C       0.130898   -0.640937   -1.312261
H       0.897890    1.923902   -0.418117
H      -0.866772    1.905430   -0.574522
H      -0.122077    1.916077    1.028670
H      -1.409796   -0.114316    1.766919
H      -1.354014   -1.641410    0.752423
H       1.098796   -0.142866    1.938859
H       1.830010   -2.431814    1.583432
H       0.862706   -2.267728   -2.465533
H      -0.300316   -0.116336   -2.162903
