23

C      -0.001406    1.523662   -0.091345
C       0.061998   -0.012687    0.017826
C       0.880171   -0.515604   -1.156771
O       0.452809   -1.147676   -2.087563
C       0.665228   -0.512340    1.357605
C      -0.112165    0.012424    2.574726
C       0.728428   -2.032226    1.383649
C       1.908457   -2.786625    0.820732
C       1.676718   -2.746802    2.311382
H       0.992244    1.971066    0.028374
H      -0.391689    1.827466   -1.067457
H      -0.655217    1.947905    0.673773
H      -0.946474   -0.426908   -0.099853
H       1.954261   -0.208469   -1.119167
H       1.696518   -0.132084    1.422534
H       0.306324   -0.402244    3.496377
H      -0.075695    1.102025    2.653305
H      -1.165563   -0.287149    2.524969
H      -0.239461   -2.509699    1.244169
H       1.722137   -3.712117    0.288000
H       2.743147   -2.214324    0.429216
H       2.352049   -2.141216    2.907913
H       1.337371   -3.649261    2.807454
