15

O       0.008684   -0.034915    0.409433
C      -0.021605    1.153993    0.161155
C      -1.338007    1.876073   -0.094890
C      -1.236146    3.336473   -0.388390
C      -0.070766    3.991602   -0.429350
C       1.257735    3.321807   -0.183362
N       1.115220    1.907591    0.097542
C      -0.014900    5.390012   -0.713800
N       0.067834    6.522541   -0.941129
H      -1.841455    1.352085   -0.917634
H      -1.979133    1.702667    0.779075
H      -2.158496    3.878309   -0.575082
H       1.901268    3.472251   -1.062356
H       1.762488    3.826919    0.652983
H       1.959129    1.381456    0.274791
