18

C       0.018977    1.559431    0.009895
C      -0.044407    0.063973    0.000042
C       0.088340   -1.002686    1.090849
C      -0.750174   -2.022835    0.270591
C       0.292224   -2.899523   -0.435474
C       1.430429   -1.882680   -0.693823
N       1.193757   -0.727318    0.210309
C      -1.122338   -0.798221   -0.604550
O      -2.059022   -0.548275   -1.313448
H       0.728362    1.907058    0.764839
H       0.347498    1.938014   -0.963717
H      -0.966878    1.985138    0.219110
H       0.144795   -0.866278    2.163769
H      -1.593018   -2.539551    0.728260
H       0.618564   -3.718271    0.214538
H      -0.094952   -3.337200   -1.359422
H       2.415395   -2.294815   -0.458352
H       1.453198   -1.531495   -1.729366
