19

C      -0.248419    1.385093    0.102820
N      -0.189974   -0.066233    0.089415
C       0.628951   -0.621232    0.889715
N       1.506967   -0.048573    1.797613
C       2.340909   -1.005749    2.514402
C       1.886850   -2.359337    1.971158
C       2.820198   -3.536426    1.975782
O       0.515577   -2.607779    2.294693
C       0.830447   -2.099150    0.979620
H       0.749754    1.852771    0.085393
H      -0.802536    1.736850   -0.771397
H      -0.773698    1.765565    0.993208
H       1.320220    0.859832    2.186744
H       3.407618   -0.841878    2.309819
H       2.190028   -0.955426    3.600146
H       3.123088   -3.786965    2.998562
H       2.327668   -4.410804    1.544509
H       3.724898   -3.320455    1.398660
H       0.584501   -2.739590    0.140239
