18

N       0.176931    0.859162    1.105408
C       0.067211   -0.248720    0.290808
N      -1.074180   -0.799227    0.156277
C      -1.433079   -1.986038   -0.572339
C      -0.361450   -2.748143   -1.357565
C       0.902120   -2.948138   -0.534468
O       1.792122   -1.832082   -0.656085
C       1.430975   -0.578824   -0.316044
N       2.241798    0.387695   -0.478866
H       0.956870    1.464068    0.892233
H      -0.705097    1.300981    1.315481
H      -1.879205   -2.679332    0.157665
H      -2.258870   -1.722870   -1.247745
H      -0.769678   -3.721499   -1.654141
H      -0.086882   -2.224645   -2.280875
H       0.668399   -3.127317    0.522742
H       1.495011   -3.789457   -0.899549
H       3.114476    0.051011   -0.889208
