12

O      -0.882641    0.766201    0.374079
C       0.107506    0.853327   -0.293282
C       1.252562    1.832079    0.040683
C       1.176890    2.498261    1.428040
C       2.369305    1.599239    1.745084
O       3.088344    1.359475    2.650353
O       2.408368    1.033150    0.471284
C       1.569748    2.675462   -1.104939
N       1.768942    3.334403   -2.032971
H       0.303040    0.218361   -1.178647
H       1.389956    3.566135    1.463257
H       0.263481    2.264257    1.975976
