21

C      -0.091566    1.534866   -0.087602
C       0.018064    0.026105   -0.002567
C       1.308624   -0.707170   -0.274988
O       2.464564    0.075099   -0.372429
C       3.474450   -0.304529    0.563650
C       3.025868   -0.104947    1.999389
C       2.194481    1.104123    2.328443
C       1.537064   -0.258057    2.246907
C       0.698630   -0.770735    1.104031
H       0.889535    2.000606   -0.192296
H      -0.678682    1.813333   -0.968854
H      -0.588403    1.960994    0.789793
H      -0.856146   -0.492041   -0.389419
H       1.314720   -1.581751   -0.925480
H       3.763924   -1.355315    0.401473
H       4.339947    0.322865    0.326770
H       3.717927   -0.481228    2.746682
H       2.293390    1.536258    3.318486
H       2.021241    1.825605    1.542583
H       1.251247   -0.675894    3.206668
H       0.190060   -1.697525    1.353513
