21

C      -0.211431    1.520056    0.044998
C       0.035548   -0.000962   -0.014973
C       0.793410   -0.443152   -1.275409
C       2.255992    0.017181   -1.258451
C       2.916014   -0.255781    0.062113
C       2.260395   -0.487258    1.211610
C       2.950517   -0.787899    2.513663
C       0.772685   -0.432536    1.253881
O       0.165873   -0.668821    2.281896
H       0.725629    2.086091    0.070264
H      -0.782070    1.849992   -0.829174
H      -0.780117    1.774807    0.943221
H      -0.939342   -0.498142    0.020759
H       0.774718   -1.538410   -1.331764
H       0.284669   -0.071597   -2.172063
H       2.819767   -0.477419   -2.058531
H       2.328859    1.092522   -1.480458
H       4.005353   -0.258717    0.070839
H       4.036902   -0.795668    2.393911
H       2.682670   -0.050312    3.277202
H       2.631544   -1.758860    2.906066
