16

C       0.045551    0.961031   -1.288567
C      -0.025302    0.045786   -0.089604
C       1.171483   -0.600189    0.469025
O       0.571720    0.531519    1.110646
C      -1.362197   -0.635857    0.118727
C      -1.971396   -0.731390    1.459253
O      -2.442200    0.218780    0.504035
C      -1.695707   -1.636208   -0.882349
N      -1.917549   -2.431552   -1.691024
H       1.032631    1.423516   -1.352041
H      -0.145937    0.406404   -2.212462
H      -0.707275    1.749751   -1.199801
H       1.081832   -1.542610    1.006769
H       2.138311   -0.415803    0.004838
H      -2.651009   -1.552850    1.675237
H      -1.409897   -0.316349    2.291264
