14

N      -0.051863    1.326591    0.010430
C      -0.026857    0.056924    0.003377
O       1.185673   -0.635106   -0.007109
C       1.228129   -1.989487   -0.014738
C       0.135712   -2.765809   -0.012930
C      -1.152477   -2.115607   -0.002256
C      -2.396435   -2.922199    0.000226
O      -2.412785   -4.129655   -0.006264
C      -1.223176   -0.763074    0.005515
H       0.893700    1.710398    0.007291
H       2.250086   -2.347563   -0.022346
H       0.204089   -3.844102   -0.019192
H      -3.333060   -2.324646    0.008671
H      -2.167032   -0.230297    0.013642
