19

C      -0.072432    1.555239   -0.071245
C       0.000661    0.032213   -0.018865
C      -1.360966   -0.597083    0.267691
C       0.706917   -0.643506   -1.214936
O       2.062490   -0.187406   -1.244543
C       1.722724   -1.258318   -0.353238
C       1.134591   -0.621157    0.917401
C       2.041649    0.304551    1.684031
O       1.971808    0.477945    2.876540
H       0.881353    1.986000   -0.384726
H      -0.840448    1.875345   -0.784221
H      -0.334027    1.969814    0.908115
H      -2.092742   -0.292216   -0.489213
H      -1.309363   -1.691095    0.263939
H      -1.737179   -0.278896    1.245238
H       0.275119   -0.973872   -2.153535
H       2.278539   -2.183053   -0.453563
H       0.689931   -1.339170    1.609524
H       2.793351    0.839586    1.066428
