20

C      -0.198073    1.400430    0.004527
N       0.272302    0.026604    0.032766
C      -0.059136   -0.711541    1.235057
C       0.157030   -0.686455   -1.162675
C       0.050149   -2.060115   -1.332744
N       0.032383   -2.290256   -2.677085
C      -0.128266   -3.560553   -3.347036
N       0.095946   -1.158882   -3.390778
C       0.172726   -0.181677   -2.488086
H       0.308086    1.955989   -0.789321
H      -1.286637    1.487853   -0.156684
H       0.049315    1.883085    0.954082
H      -1.114212   -1.037637    1.271649
H       0.573099   -1.602162    1.311840
H       0.138191   -0.086827    2.110218
H      -0.009495   -2.869609   -0.625037
H      -1.156696   -3.931291   -3.265724
H       0.114141   -3.409773   -4.398724
H       0.550559   -4.304737   -2.920256
H       0.242908    0.842631   -2.819313
