20

C      -0.080902    1.554124    0.031916
C      -0.061603    0.033221    0.144495
N      -1.357197   -0.527774   -0.195303
C      -1.532873   -1.899497   -0.091318
C      -0.591908   -2.906788   -0.095901
N      -1.324021   -4.086356   -0.022602
C      -0.786811   -5.427595   -0.001225
C      -2.629898   -3.729474    0.031667
N      -2.800127   -2.424109   -0.005471
H       0.904355    1.970824    0.259003
H      -0.366827    1.864487   -0.977276
H      -0.796962    1.991689    0.737141
H       0.679706   -0.374685   -0.555394
H       0.267455   -0.267938    1.155255
H      -2.143277   -0.028452    0.199476
H       0.482733   -2.911059   -0.146459
H      -0.122080   -5.571111    0.857398
H      -1.611155   -6.139549    0.075117
H      -0.225100   -5.641991   -0.916711
H      -3.418313   -4.465199    0.099730
