19

C      -0.004407    1.432217   -0.258284
C       1.220167    0.622596    0.183297
C       1.741427   -0.258318   -0.935412
O       2.963048   -1.006767   -0.630081
C       2.398935   -2.180310   -1.217031
C       1.258773   -2.707170   -0.382857
C       1.258422   -2.642697    1.101835
O       0.572766   -3.357628    1.794784
C       1.051310   -1.547187   -1.379644
H       0.228808    2.074392   -1.114553
H      -0.831604    0.775317   -0.547307
H      -0.358936    2.074026    0.552529
H       2.030784    1.297529    0.484906
H       0.971360    0.018139    1.060157
H       1.941018    0.359169   -1.823088
H       3.023428   -2.781969   -1.866777
H       0.803442   -3.618093   -0.763197
H       1.970754   -1.919637    1.544220
H       0.319470   -1.643582   -2.169461
