21

C      -0.245683   -1.400018   -0.091138
C      -0.148550   -0.202747   -0.013468
C      -0.007466    1.238340    0.104454
C      -0.066986    1.810264    1.570598
C       1.193203    2.663436    1.272800
C       1.466613    1.786714    0.023295
C      -0.939390    2.000575   -0.830804
C      -1.269706    1.506315   -2.214440
C      -2.333293    1.522620   -1.141360
H      -0.329371   -2.456396   -0.158230
H      -0.989284    2.332984    1.834387
H       0.122573    1.029980    2.310302
H       0.949185    3.697327    1.015209
H       1.968661    2.679101    2.041154
H       2.196024    0.998129    0.218309
H       1.730014    2.291223   -0.909200
H      -0.823383    3.077127   -0.732182
H      -1.329634    2.232291   -3.017762
H      -0.880084    0.537796   -2.507468
H      -2.637485    0.564735   -0.734390
H      -3.126000    2.259829   -1.205360
