20

C      -0.200928    1.527496   -0.064395
C       0.038620    0.017355    0.006129
C       0.817359   -0.452432    1.255748
C       2.210604    0.172396    1.342022
O       0.142381   -0.039651    2.443564
C       0.913318   -2.005671    1.211886
C       1.550592   -2.605556    2.376250
C       2.077266   -3.108995    3.332174
H       0.729044    2.080017   -0.227691
H      -0.877965    1.772797   -0.888122
H      -0.646056    1.887547    0.867006
H      -0.931269   -0.501080    0.002170
H       0.566040   -0.324343   -0.893485
H       2.134478    1.253751    1.473731
H       2.751939   -0.238773    2.196803
H       2.784165   -0.030540    0.432449
H      -0.716136   -0.476415    2.470502
H      -0.102715   -2.411927    1.105273
H       1.450755   -2.302860    0.302311
H       2.540307   -3.549898    4.179734
