18

O       0.026996    1.294420   -0.071658
C      -0.015096   -0.120513   -0.040707
C       0.653930   -0.697562   -1.284953
O      -0.051096   -0.149537   -2.401358
C       0.517518   -0.291855   -3.618181
N      -0.069760    0.158292   -4.638151
C       0.691720   -0.571563    1.239146
C      -0.041365   -0.126553    2.490537
O      -0.234470   -0.836099    3.444125
H      -0.363860    1.566872   -0.910761
H      -1.059245   -0.474633   -0.030363
H       1.708864   -0.395406   -1.316139
H       0.590241   -1.793264   -1.293919
H       1.485532   -0.810010   -3.590377
H       0.486633   -0.021408   -5.471156
H       0.812384   -1.657839    1.274602
H       1.687983   -0.107512    1.254778
H      -0.390562    0.926853    2.468313
