23

C      -0.219430    1.510296    0.157737
C      -0.034071    0.008651    0.008914
O      -1.319479   -0.583643   -0.110894
C      -1.379729   -2.015888   -0.036751
C      -0.524810   -2.695675   -1.093840
C      -1.273324   -2.490141    1.448956
C      -2.813968   -2.295278    1.572491
O      -3.197492   -1.054544    2.121152
C      -2.893409   -2.354043    0.019907
H       0.752363    2.011011    0.203221
H      -0.776976    1.911892   -0.693206
H      -0.771996    1.747227    1.071960
H       0.570966   -0.209697   -0.882536
H       0.504186   -0.400715    0.877169
H       0.545243   -2.543883   -0.920327
H      -0.708600   -3.773907   -1.086044
H      -0.769527   -2.312583   -2.090322
H      -0.979652   -3.541745    1.519109
H      -0.655502   -1.898020    2.128649
H      -3.362536   -3.059705    2.127210
H      -2.760127   -0.378789    1.586499
H      -3.561757   -1.637851   -0.463413
H      -3.098701   -3.361806   -0.351363
