19

O      -0.057123    1.413224   -0.115148
C       0.017746    0.016759   -0.046519
C       0.376153   -0.715544    1.310652
C      -0.674679   -1.814568    0.949568
C      -1.910340   -2.193086    1.817707
O      -2.029932   -1.421672    3.000821
C      -3.099410   -1.914435    0.837939
C      -2.571581   -0.777198   -0.035671
C      -1.240393   -0.822459   -0.032764
H      -0.748468    1.697869    0.492828
H       0.718914   -0.286010   -0.831325
H       1.415071   -1.023102    1.445576
H       0.056517   -0.124916    2.173609
H      -0.210716   -2.699975    0.502577
H      -1.883785   -3.231575    2.158254
H      -2.219711   -0.514252    2.736150
H      -3.343071   -2.807886    0.246948
H      -4.002385   -1.651777    1.399955
H      -3.206021   -0.037647   -0.510181
