18

C      -0.055029    1.578931   -0.013489
C       0.077757    0.055211   -0.043855
N       0.722563   -0.495159    1.149862
C      -0.076132   -0.714546    2.335949
C      -0.500443   -2.119766    2.507754
N      -0.787065   -3.231563    2.639959
C       2.096139   -0.666323    1.139988
N       2.619305   -1.288944    2.270087
O       2.794130   -0.260370    0.229667
H       0.934978    2.038028    0.040744
H      -0.552858    1.932692   -0.921784
H      -0.645611    1.921248    0.843714
H      -0.903288   -0.422217   -0.146956
H       0.685687   -0.245601   -0.898018
H       0.479194   -0.417276    3.231899
H      -0.970237   -0.085406    2.292982
H       2.105672   -2.068247    2.658672
H       3.601383   -1.489057    2.145939
