18

O      -0.040443    1.463880   -0.027317
C       0.055012    0.046471    0.002321
C       0.761090   -0.525366    1.277786
C      -0.336417   -1.319044    1.996352
C      -1.531069   -0.498491    2.480718
C      -2.192505    0.017883    1.246462
C      -1.367034   -0.521476    0.080087
C      -1.349040   -1.813871    0.930974
N      -2.558643   -1.341219    1.776738
H       0.849572    1.823305   -0.091105
H       0.564226   -0.314317   -0.904127
H       1.600025   -1.174550    1.003808
H       1.157347    0.288755    1.893534
H       0.001400   -2.068081    2.713303
H      -1.714143   -0.083130    3.464992
H      -2.894941    0.841390    1.253070
H      -1.908945   -0.566999   -0.864202
H      -1.338717   -2.815913    0.507170
