18

C       0.031209    1.363470   -0.404933
N       0.059126   -0.048364   -0.023278
C      -1.056314   -0.559082    0.837858
C      -0.129719   -1.813480    1.106350
C       0.709061   -0.518596    1.286369
C       1.783981    0.387499    1.896252
C       0.567402    1.280274    2.386671
O       0.504045    2.345209    2.915356
C      -0.429675    0.091931    2.129417
H       1.038241    1.672782   -0.702260
H      -0.608412    1.449432   -1.289652
H      -0.345330    2.074741    0.343040
H      -2.097644   -0.566736    0.503187
H      -0.331728   -2.395029    2.006592
H       0.080385   -2.421523    0.226335
H       2.276920   -0.052301    2.769764
H       2.535616    0.844609    1.248579
H      -0.690409   -0.375884    3.086000
