15

N       0.030646    1.375468    0.145958
C      -0.036757   -0.009117    0.062962
C      -1.184749   -0.732617    0.020083
O      -1.207167   -2.081169   -0.019059
C      -0.043710   -2.764116    0.004411
C       1.171772   -2.160770    0.046289
N       2.389707   -2.824635    0.113407
C       1.246605   -0.703523    0.055169
O       2.323942   -0.098259    0.036764
H       0.969682    1.692369   -0.067645
H      -0.683256    1.888311   -0.349514
H      -2.182686   -0.314265    0.010530
H      -0.205834   -3.833818   -0.016601
H       2.452879   -3.695000   -0.393193
H       3.147532   -2.185061   -0.097555
