17

C       0.027876    1.608186   -0.161217
C      -0.017518    0.116723   -0.291674
N       0.248094   -0.504098   -1.354329
O      -0.398674   -0.433167    0.933449
C      -0.499460   -1.788072    1.047439
C      -1.393601   -2.698799    0.537257
C      -1.030068   -3.968585    1.076666
C       0.061066   -3.784589    1.890084
N       0.383823   -2.447586    1.860479
H       0.325301    2.047951   -1.111822
H      -0.954460    1.990182    0.133492
H       0.735767    1.900429    0.620740
H       0.146119   -1.514802   -1.236084
H      -2.211150   -2.475734   -0.129234
H      -1.523391   -4.908717    0.885130
H       0.631094   -4.478878    2.484990
H       1.125206   -1.997371    2.368616
