17

C       0.095473   -1.189465    0.273232
C       0.030565    0.008950    0.182111
C      -0.015880    1.436468    0.060176
C       0.700977    2.302063    1.093362
C       1.243885    2.195394   -0.314283
N       2.428387    1.459152   -0.641513
C       3.652157    2.052602   -0.118240
C       4.825727    1.265538   -0.506779
N       5.751922    0.637235   -0.791498
H       0.134874   -2.247414    0.358013
H      -0.942338    1.831625   -0.344381
H       0.213637    3.219707    1.403863
H       1.224007    1.770536    1.880466
H       1.086569    3.061463   -0.953517
H       2.341102    0.486673   -0.364683
H       3.763144    3.061648   -0.534843
H       3.665446    2.167716    0.980096
