15

O      -0.018701    1.404603    0.058761
C       0.068439    0.041838    0.020067
C       0.936211   -0.990921    0.821427
C       0.796068   -2.007322   -0.303222
C      -0.225141   -1.976676    0.828959
C      -1.089158   -0.950163    0.014923
O      -2.424160   -0.668692   -0.006826
C      -0.069924   -0.993202   -1.128299
O      -0.356112   -0.880445   -2.462345
H       0.745419    1.780503   -0.393928
H       1.737773   -0.869002    1.539737
H       1.473750   -2.799881   -0.597315
H      -0.475821   -2.738005    1.557963
H      -2.849391   -1.240859   -0.656516
H       0.369925   -0.427091   -2.906187
