17

C       0.690708    1.695503   -0.294348
C       0.226590    0.247892   -0.234947
C       1.297938   -0.856850   -0.381354
O       0.991473   -1.402210    0.924891
C      -0.020820   -0.396491    1.161370
C       0.241696    0.483813    2.378709
N       1.400062    0.198677    3.024712
O      -0.537190    1.365462    2.691049
H       1.576118    1.855150    0.329747
H       0.947578    1.973550   -1.321847
H      -0.092179    2.369728    0.062346
H      -0.625199    0.097417   -0.901855
H       1.129954   -1.594859   -1.173393
H       2.333397   -0.498107   -0.437980
H      -1.014247   -0.841520    1.287014
H       1.933793   -0.603693    2.731910
H       1.617274    0.679242    3.881606
