19

C       0.141449    1.497652   -0.018428
C       0.062340    0.008987    0.065378
C      -0.939591   -0.805470    0.825434
C       0.545248   -1.035917    1.065494
C       1.124600   -1.739161   -0.156203
O       0.555565   -0.744978   -1.050184
C       1.198713   -0.912892    2.386258
C       2.049130   -1.972622    2.950282
O       2.628361   -0.791141    2.394875
H       1.163670    1.822417   -0.233369
H      -0.510979    1.868462   -0.817228
H      -0.182907    1.955289    0.920512
H      -1.449422   -0.285868    1.632005
H      -1.535446   -1.557204    0.313962
H       2.218517   -1.703700   -0.184336
H       0.769538   -2.752030   -0.381414
H       0.695299   -0.247625    3.089805
H       2.139774   -2.078970    4.030584
H       2.215520   -2.886432    2.380819
