19

C      -0.066765    1.377693   -0.046857
O      -0.038470   -0.042955   -0.089280
C       0.686741   -0.587787   -1.116671
C       0.597658   -2.112419   -1.250370
C       1.468114   -2.094093   -2.532142
C       0.608406   -1.096769   -3.372782
O       0.141816   -0.150910   -2.410068
C       2.660941   -1.285428   -2.044727
C       2.197174   -0.359619   -1.199314
H       0.933677    1.800829    0.114838
H      -0.485442    1.791836   -0.969040
H      -0.702546    1.647010    0.798684
H       1.064776   -2.643970   -0.421296
H      -0.431524   -2.447747   -1.401064
H       1.677302   -3.042493   -3.024743
H       1.192023   -0.592204   -4.151778
H      -0.247706   -1.600654   -3.839340
H       3.671635   -1.390287   -2.419256
H       2.737940    0.454412   -0.735948
