14

C       0.031133    1.504719   -0.014042
C       0.047397    0.014585    0.076114
C      -0.887223   -0.859456    0.855366
C       0.612401   -0.994283    1.056667
C       1.208574   -1.662135   -0.173615
O       0.554913   -0.711466   -1.057038
H       1.025505    1.895700   -0.251036
H      -0.658631    1.832134   -0.800422
H      -0.302812    1.942735    0.930931
H      -1.409338   -0.376294    1.675702
H      -1.448034   -1.639661    0.346762
H       1.098480   -0.860152    2.013718
H       2.298256   -1.566995   -0.245746
H       0.914644   -2.697604   -0.385612
