21

C      -0.109885    1.207494   -0.172327
C       1.397599    1.477498   -0.007868
C       1.413295    0.108701    0.716140
O       0.024921   -0.126653    0.363383
C       2.339103   -0.998046    0.239517
C       1.970162   -2.389250    0.829267
C       2.059184   -3.341957   -0.386943
O       2.724357   -2.622336   -1.417377
C       2.326634   -1.269935   -1.277547
H      -0.759774    1.831585    0.454610
H      -0.503846    1.199255   -1.194722
H       1.955929    1.497427   -0.945554
H       1.676689    2.344164    0.592747
H       1.509756    0.214537    1.806917
H       3.358327   -0.730483    0.542737
H       2.660354   -2.677777    1.625307
H       0.960027   -2.380548    1.245607
H       2.634320   -4.251307   -0.193026
H       1.051209   -3.636319   -0.717682
H       1.312236   -1.113982   -1.678460
H       3.031711   -0.657597   -1.845543
