16

O       0.208419    1.411331   -0.090409
C       0.096315    0.023527    0.013418
C       0.206807   -0.568458    1.443149
N      -1.272375   -0.606420    1.512373
C      -1.376281   -0.550303    0.029336
C      -2.444300    0.269409   -0.503301
C      -3.323621    0.969088   -0.954994
C      -4.312723    1.754892   -1.458995
C      -5.191394    2.452190   -1.906378
H      -0.446590    1.811301    0.494302
H       0.752778   -0.400518   -0.746894
H       0.697935   -1.551982    1.447857
H       0.680874    0.073367    2.192523
H      -1.687482   -1.423804    1.945969
H      -1.391797   -1.540201   -0.452519
H      -5.962687    3.066669   -2.299646
