20

C       0.027914    1.555009   -0.014787
C      -0.000073    0.016950    0.039910
C       0.799803   -0.510705    1.244476
C      -1.421647   -0.516078    0.035918
C      -2.325999   -0.231493    1.063571
C      -3.615416   -0.748187    1.004287
N      -4.067703   -1.518541    0.009801
C      -3.203566   -1.789528   -0.970785
C      -1.893210   -1.320023   -1.002335
H       1.059857    1.917025   -0.066980
H      -0.510944    1.931448   -0.889277
H      -0.433527    1.992849    0.876617
H       0.484685   -0.356889   -0.870450
H       0.371732   -0.161216    2.189900
H       0.810258   -1.604424    1.266333
H       1.835825   -0.159633    1.198749
H      -2.036452    0.386785    1.906924
H      -4.324706   -0.531183    1.800140
H      -3.576192   -2.416811   -1.777892
H      -1.244914   -1.581094   -1.833345
