20

C       0.203969    1.484609   -0.064518
C       0.014641   -0.009468    0.107559
C      -1.187457   -0.574424   -0.624606
N       1.255794   -0.816300    0.096796
C       0.471141   -0.715990    1.341073
C       1.154919   -0.044112    2.498011
C       2.405030   -0.630970    3.044178
N       2.440257    0.636588    2.296201
H       1.057939    1.855371    0.503081
H       0.359276    1.729141   -1.121403
H      -0.688730    2.022685    0.273592
H      -1.096071   -0.410724   -1.704919
H      -1.293644   -1.650734   -0.452070
H      -2.113031   -0.088876   -0.296252
H       1.098986   -1.711745   -0.357946
H      -0.123431   -1.584548    1.626242
H       0.483838    0.468041    3.185602
H       2.630182   -0.552706    4.104140
H       2.793626   -1.521935    2.556747
H       2.737746    0.425879    1.342886
