21

C      -0.303761    1.354687   -0.092270
O      -0.107026   -0.041101   -0.073301
C       0.759778   -0.504192   -1.091252
C       0.744955   -2.028139   -1.016393
O      -0.587197   -2.499852   -1.136669
C       1.573552   -2.669080   -2.126311
C       1.580171   -4.204504   -2.031964
C       2.232806   -4.840609   -3.234463
O       3.150886   -5.619043   -3.197917
H       0.639868    1.898187    0.066656
H      -0.739243    1.690346   -1.045858
H      -0.993071    1.598715    0.719377
H       0.400106   -0.173658   -2.079758
H       1.779448   -0.111859   -0.946669
H       1.163153   -2.318914   -0.037324
H      -1.117028   -1.940914   -0.555038
H       1.155854   -2.361335   -3.093514
H       2.599820   -2.286450   -2.076990
H       2.090265   -4.551818   -1.128679
H       0.537227   -4.545095   -1.993099
H       1.789914   -4.527045   -4.210559
