16

C      -0.036455    1.487559    0.079902
O       1.293806    1.970114   -0.142766
C       2.031581    0.926049   -0.770203
C       3.398119    0.559589   -0.232381
C       3.502599   -0.766289   -0.095990
C       2.208205   -1.505256   -0.433126
C       1.259747   -0.340521   -0.475611
C       0.070939   -0.022216    0.017263
H      -0.378862    1.837418    1.062696
H      -0.727401    1.901411   -0.674744
H       2.109163    1.148487   -1.851840
H       4.193305    1.278710   -0.076765
H       4.403365   -1.296162    0.194919
H       2.297003   -2.025765   -1.398128
H       1.933747   -2.262613    0.308963
H      -0.686398   -0.687228    0.412900
