19

C      -0.297581    1.416795    0.313435
N       0.027923    0.029902    0.020157
C       0.489349   -0.423842   -1.278806
C       0.835527    0.533405   -2.426473
N       2.237864    0.953563   -2.504072
C       2.748027    1.447274   -1.226195
C       2.598022    0.461231   -0.060553
O       3.435824    0.374675    0.810418
C       1.407751   -0.459500   -0.079167
H       0.265141    2.178930   -0.241738
H      -1.360723    1.567855    0.099960
H      -0.140025    1.590216    1.381749
H       0.034699   -1.365811   -1.583488
H       0.579158    0.049297   -3.372979
H       0.214047    1.435669   -2.365572
H       2.801484    0.159580   -2.793313
H       3.811068    1.688024   -1.312548
H       2.232433    2.384777   -0.977343
H       1.590461   -1.384056    0.463790
