20

C       0.031718    1.557081    0.018677
C      -0.028136    0.031008   -0.089371
C       0.767546   -0.533441   -1.289766
C       0.919833   -2.047745   -1.187745
O       1.626061   -2.493851   -2.323427
C       1.798634   -3.891236   -2.356231
C       0.043496   -0.179720   -2.576653
O       0.316341    0.745270   -3.295473
H       1.060022    1.897796    0.177554
H      -0.335811    2.039223   -0.891743
H      -0.573309    1.910582    0.858858
H       0.366180   -0.421199    0.829011
H      -1.073485   -0.298774   -0.163178
H       1.758374   -0.068542   -1.328044
H       1.453147   -2.317036   -0.260969
H      -0.074474   -2.528457   -1.138152
H       2.370428   -4.250828   -1.486354
H       0.833485   -4.421632   -2.375389
H       2.352323   -4.130566   -3.266889
H      -0.831286   -0.839411   -2.795531
