15

O      -0.181501    1.390991    0.326513
C      -0.030703    0.020069    0.106652
C       0.955284   -0.634816    1.079979
C       2.322720    0.019132    1.085920
O       2.545190    1.140493    0.694622
C      -1.383794   -0.691958   -0.084608
O      -1.020261   -1.063216   -1.452778
C       0.183687   -0.410451   -1.375893
O       1.011595   -0.296470   -2.219400
H       0.714464    1.766003    0.315986
H       0.565597   -0.554859    2.106183
H       1.073438   -1.705768    0.876478
H       3.140099   -0.598664    1.512231
H      -1.571581   -1.580141    0.522039
H      -2.235961   -0.011364   -0.073209
