19

C      -0.476706    1.510612   -0.021312
C       0.155807    0.129687   -0.033039
O       1.233389    0.122813   -0.998414
C       2.208773   -0.758155   -0.634469
O       3.164636   -0.971820   -1.321215
C       1.848152   -1.361516    0.717503
C       0.787947   -0.401799    1.274345
C       1.425592    0.681532    2.145812
O       2.031447    0.025549    3.249119
H       0.249438    2.283358    0.243270
H      -0.874135    1.746747   -1.011705
H      -1.303045    1.543134    0.695667
H      -0.589396   -0.600409   -0.378076
H       1.444186   -2.365327    0.544112
H       2.727398   -1.462858    1.353189
H       0.038154   -0.920867    1.877721
H       2.168191    1.247655    1.560930
H       0.658083    1.392822    2.483992
H       2.506728    0.680767    3.768052
