21

O      -0.069177    1.355512   -0.021765
C       0.021239   -0.052042    0.031991
C       0.368556   -0.765368   -1.310979
C      -0.997420   -1.518889   -1.257662
C      -1.353454   -0.793217    0.072865
C      -1.192255   -1.538426    1.412777
C       0.263348   -2.089136    1.346636
C       0.630703   -0.579739    1.347942
C      -0.591992   -0.401479    2.303367
H       0.826449    1.711238   -0.013941
H       0.436181   -0.050187   -2.133657
H       1.266764   -1.389361   -1.310377
H      -1.666891   -1.275406   -2.085188
H      -0.928983   -2.607415   -1.187149
H      -2.238632   -0.155675    0.040719
H      -2.020706   -2.162137    1.751309
H       0.556841   -2.576989    2.279003
H       0.564216   -2.713370    0.502379
H       1.634264   -0.232689    1.606256
H      -1.088805    0.571194    2.304429
H      -0.382658   -0.731991    3.323271
