18

C       0.190652    1.217029    0.294323
O      -0.245530   -0.010107   -0.262973
C       0.548379   -0.498276   -1.293606
C       0.389714    0.209330   -2.622052
C       1.875199   -1.115340   -0.914191
C       0.687266   -2.016631   -1.255143
O       0.023479   -2.672893   -0.224808
C       0.721182   -2.747154   -2.506152
N       0.759542   -3.355317   -3.489649
H       1.227388    1.153600    0.653332
H       0.117866    2.047847   -0.420290
H      -0.467715    1.423711    1.140384
H       0.772764    1.232796   -2.561594
H       0.933906   -0.303771   -3.417763
H      -0.668102    0.250509   -2.897222
H       2.706813   -1.062371   -1.607698
H       2.132808   -1.112438    0.139024
H       0.549058   -3.440589    0.029215
