23

C       0.000534    1.630836   -0.026704
C       0.008442    0.099965   -0.013769
C       0.704317   -0.510269   -1.235082
C       0.712609   -2.041776   -1.222788
C       1.409008   -2.639208   -2.445274
C       1.422411   -4.153889   -2.442368
O       0.948501   -4.863246   -1.590624
O       2.047818   -4.628211   -3.541570
C       2.116973   -6.055434   -3.638854
H       1.020053    2.032294   -0.042150
H      -0.518483    2.017002   -0.911196
H      -0.502608    2.035741    0.856921
H       0.503087   -0.257296    0.899037
H      -1.023180   -0.272465    0.036986
H       0.210246   -0.152968   -2.149928
H       1.737384   -0.137778   -1.287394
H       1.206280   -2.406319   -0.314532
H      -0.314499   -2.421449   -1.173466
H       0.930351   -2.310550   -3.376398
H       2.448502   -2.295479   -2.518930
H       2.644940   -6.265143   -4.569335
H       2.660044   -6.475796   -2.788384
H       1.114686   -6.491132   -3.661814
