16

O      -0.118183    0.017516    0.403028
C      -0.048446    1.196615    0.137980
N       1.094785    1.850966   -0.229871
C       2.373894    1.203952   -0.258910
C       3.263918    1.511013   -1.493856
N       4.031093    2.481824   -0.679778
C       3.515760    1.901323    0.576397
C       3.113778    2.877030    1.587890
N       2.765503    3.647960    2.375242
H      -0.920536    1.876978    0.152735
H       1.051072    2.849227   -0.370779
H       2.203815    0.156229   -0.021627
H       3.830115    0.629638   -1.822323
H       2.756948    1.951538   -2.357659
H       5.039107    2.474134   -0.784432
H       4.165837    1.150830    1.046369
