18

C      -0.016240    1.512890    0.077692
C       0.009765    0.024814   -0.046987
C       0.001034   -0.812755   -1.131954
C      -0.035047   -0.812445   -2.636797
C      -0.012161   -2.305601   -2.942240
C       0.029974   -3.047807   -1.818790
C       0.039909   -2.162952   -0.662210
C       0.072283   -2.131959    0.710293
N       0.053006   -0.797403    1.068859
H       0.879207    1.904761    0.577136
H      -0.063600    1.967846   -0.914340
H      -0.886684    1.867560    0.644432
H      -0.932829   -0.333922   -3.052660
H       0.821741   -0.298514   -3.094734
H      -0.028663   -2.692005   -3.953830
H       0.052910   -4.129970   -1.780571
H       0.105737   -2.905738    1.459998
H       0.068352   -0.462618    2.016656
