15

C      -0.020876    1.500015    0.046505
C      -0.009944    0.006288    0.012637
N      -0.030447   -0.642900   -1.127792
O      -0.012617   -1.990126   -0.807486
C       0.018384   -2.134037    0.529296
C       0.021929   -0.903777    1.113518
N       0.049541   -0.553339    2.465063
C       0.079355   -1.451848    3.494862
O       0.085253   -2.654820    3.356232
H       0.873666    1.894634    0.542045
H      -0.048394    1.890579   -0.972138
H      -0.896703    1.880684    0.584552
H       0.034999   -3.133660    0.923657
H       0.047426    0.428349    2.693755
H       0.097496   -0.946892    4.478310
