21

C      -0.314485    1.453200   -0.024341
C       0.171520   -0.006558    0.016785
C       0.894554   -0.431345   -1.226299
C       2.164772   -0.841792   -1.347401
C       2.407460   -1.339547   -2.753468
C       1.562199   -2.666194   -2.929842
C       0.400161   -1.807635   -3.410670
C       1.315950   -0.625142   -3.622637
C       0.246402   -0.506071   -2.575654
H       0.528407    2.140327   -0.146939
H      -1.005561    1.623315   -0.856273
H      -0.837644    1.715677    0.900502
H       0.828461   -0.147277    0.882461
H      -0.696159   -0.662289    0.175898
H       2.866089   -0.981864   -0.532544
H       3.439499   -1.371080   -3.099387
H       1.952095   -3.266654   -3.756163
H       1.433869   -3.295881   -2.042742
H      -0.431359   -2.144818   -4.018450
H       1.453723    0.030360   -4.474158
H      -0.650902    0.061180   -2.797365
