15

C      -0.168569    1.509470   -0.023105
C       0.074982    0.019863   -0.048214
O       0.887578   -0.349431   -1.162034
C       1.942984   -1.178112   -0.717191
C       1.856440   -1.160059    0.800820
O       2.572427   -1.670993    1.603899
O       0.761580   -0.413559    1.126735
C      -1.213376   -0.820215   -0.147169
O      -2.311180   -0.361892   -0.292229
H       0.785246    2.035992    0.048597
H      -0.682076    1.806902   -0.939267
H      -0.798985    1.773634    0.828172
H       1.844693   -2.205431   -1.089545
H       2.908980   -0.780594   -1.046133
H      -1.019281   -1.914958   -0.097053
