22

C      -0.024064    1.576095   -0.002424
C       0.041363    0.046936    0.022177
C      -1.380209   -0.544432    0.047849
C       0.820048   -0.544762   -1.180895
N       1.254784   -1.904500   -0.773984
C       2.553583   -1.934334   -0.096360
C       1.306215   -1.890062    0.709185
C       0.838515   -0.527132    1.228182
O       1.904208    0.364807    1.542664
H       0.974267    2.016524    0.008210
H      -0.548570    1.920051   -0.900813
H      -0.570170    1.960070    0.866040
H      -1.942789   -0.221306   -0.834189
H      -1.362367   -1.638637    0.046966
H      -1.929725   -0.211513    0.934925
H       0.187477   -0.625850   -2.070297
H       1.678866    0.086497   -1.439310
H       3.101590   -2.868255   -0.192408
H       3.164800   -1.035460   -0.119567
H       0.944056   -2.784889    1.208731
H       0.188002   -0.650801    2.105520
H       2.480196   -0.078839    2.173179
