17

N       0.110864    1.368661   -0.256231
C      -0.023354   -0.021383   -0.071274
C      -1.142848   -0.838831   -0.031198
C      -0.623945   -2.158451    0.008959
C       0.736869   -2.127898   -0.014227
C       1.288582   -3.474906    0.328115
C      -0.023240   -4.300862    0.108221
O      -1.157423   -3.401101    0.210753
N       1.117760   -0.795252   -0.013737
H      -0.764847    1.776175   -0.558957
H       0.400763    1.846888    0.592202
H      -2.170283   -0.512646   -0.010417
H       2.087420   -3.850541   -0.321219
H       1.651201   -3.543063    1.365026
H      -0.023593   -4.732819   -0.900045
H      -0.165470   -5.099825    0.838615
H       2.016468   -0.432692   -0.283250
