24

C       0.497318   -2.413737   -0.133925
C      -0.052707   -1.249399    0.698763
C      -1.568180   -1.249405    0.728944
C      -2.325107   -1.934898    1.818537
N      -2.358447   -0.481396    1.693559
C      -1.707748    0.304776    2.703372
C      -1.629347    1.793533    2.474012
C      -2.560097    1.242835    3.530443
C      -4.059604    1.315937    3.350571
H       1.590408   -2.388559   -0.175265
H       0.196914   -3.377769    0.289615
H       0.124267   -2.374023   -1.163226
H       0.349007   -1.305603    1.715525
H       0.299494   -0.298618    0.278222
H      -2.017459   -1.250839   -0.265155
H      -3.257837   -2.457320    1.620396
H      -1.735384   -2.357823    2.632372
H      -0.866339   -0.154677    3.225081
H      -0.731799    2.322088    2.776180
H      -2.086764    2.159837    1.560879
H      -2.221959    1.367286    4.556330
H      -4.334396    1.095654    2.316922
H      -4.571216    0.590228    3.992944
H      -4.436268    2.312223    3.607438
