17

C       0.100393    1.499981   -0.147706
C       0.094593    0.008132    0.065337
O       1.350515   -0.670495    0.113973
C       0.536115   -0.694603    1.297799
C       1.092538    0.058209    2.507605
C       2.149509   -0.674071    3.195920
C       3.022905   -1.273212    3.761823
C      -0.075199   -1.968167    1.607404
C      -0.603577   -3.011762    1.882443
H       0.876657    2.002067    0.431921
H       0.281912    1.716243   -1.205701
H      -0.872662    1.926441    0.117836
H      -0.659167   -0.523213   -0.518737
H       1.475978    1.028328    2.180499
H       0.265439    0.255124    3.201408
H       3.795309   -1.806290    4.258173
H      -1.058001   -3.941161    2.122734
