23

C      -0.109125    1.625834    0.031439
C      -0.077091    0.105599   -0.149878
C      -1.396587   -0.562759    0.267759
C      -1.440705   -2.076090    0.087642
C      -0.417801   -2.855940    0.894842
C      -2.767087   -2.714357   -0.179214
N      -1.739555   -2.691591   -1.214914
C      -1.991525   -1.887729   -2.399663
H       0.839662    2.083975   -0.264606
H      -0.901741    2.081312   -0.572915
H      -0.297294    1.895703    1.076797
H       0.139968   -0.135207   -1.197658
H       0.751129   -0.310751    0.435038
H      -1.585633   -0.344873    1.328166
H      -2.222879   -0.095559   -0.278798
H      -0.511241   -2.632639    1.964100
H      -0.560634   -3.929138    0.749344
H       0.605327   -2.614508    0.588740
H      -3.011265   -3.690424    0.235251
H      -3.623660   -2.050016   -0.298544
H      -2.556336   -0.959062   -2.222456
H      -1.040357   -1.625615   -2.874655
H      -2.564702   -2.491310   -3.111605
