20

C      -0.601109    1.325107    0.170097
C      -0.091031   -0.097687   -0.035807
C       1.214626   -0.158970   -0.895871
O       2.013406   -0.377710    0.283409
C       0.844450   -0.581619    1.097383
N      -1.172452   -1.024968   -0.327358
C      -1.922087   -0.782651   -1.554049
C      -3.119003    0.134067   -1.331618
O      -3.573621    0.870477   -2.166756
H       0.224577    1.977499    0.467978
H      -1.032697    1.741129   -0.745964
H      -1.364589    1.349546    0.953727
H       1.252459   -1.016136   -1.584375
H       1.515080    0.748186   -1.432561
H       0.863579    0.016688    2.015265
H       0.703958   -1.639693    1.364418
H      -0.809421   -1.970393   -0.327872
H      -1.330891   -0.389512   -2.395681
H      -2.348116   -1.738957   -1.887558
H      -3.560194    0.042261   -0.313288
