21

C       0.130714    1.311393    0.105637
O      -0.010087   -0.084777   -0.091533
C       0.625808   -0.617917   -1.230763
C       0.029386   -0.055759   -2.517140
O       2.050113   -0.365548   -1.195900
C       2.589094   -1.684611   -0.963328
C       1.834526   -2.542596   -2.006202
C       0.637199   -2.154087   -1.080917
C       1.647824   -2.290664    0.103810
H       1.182263    1.614907    0.055740
H      -0.446973    1.896532   -0.622953
H      -0.258387    1.523249    1.104348
H       0.327728    0.986707   -2.653784
H       0.375448   -0.612867   -3.389206
H      -1.062378   -0.107108   -2.475000
H       3.672818   -1.626179   -0.875039
H       1.847294   -2.198805   -3.042117
H       2.070255   -3.606753   -1.950194
H      -0.328861   -2.655368   -1.104841
H       1.880635   -3.331347    0.335245
H       1.457323   -1.709197    1.004053
