16

O       0.011998    0.037432    0.502618
C       0.035699    1.165978    0.104859
O      -1.192991    1.799095   -0.048378
C      -1.513163    2.925815   -0.770195
N      -0.943681    3.525633   -1.713349
C       0.323149    3.112869   -2.293928
C       1.462071    2.864596   -1.319622
C       1.452614    3.406727    0.071008
C       1.291427    1.907847   -0.151718
H      -2.484026    3.268468   -0.416418
H       0.165213    2.211480   -2.904440
H       0.629179    3.903648   -2.987072
H       2.430060    2.794419   -1.807927
H       2.388003    3.723513    0.516890
H       0.585820    3.966664    0.399624
H       2.141289    1.282985    0.093016
