18

O       0.123380    1.415114   -0.133594
C       0.026055   -0.000504   -0.027706
C       0.780030   -0.512520    1.172060
C       0.190477   -0.981777    2.272605
C      -1.301179   -1.083373    2.446963
C      -2.066956   -0.265639    1.400611
C      -1.449473   -0.488508    0.004422
C      -2.242280    0.149232   -1.046492
N      -2.894666    0.633719   -1.867894
H       0.040123    1.783738    0.752249
H       0.486411   -0.378711   -0.947080
H       1.862738   -0.444145    1.112326
H       0.803946   -1.326544    3.101852
H      -1.600417   -2.140820    2.391914
H      -1.579743   -0.756086    3.455732
H      -3.126343   -0.533859    1.394885
H      -2.013962    0.802872    1.640171
H      -1.440980   -1.567332   -0.202672
