18

C       0.258911    1.493726    0.110598
O       1.215495    0.469336   -0.165302
C      -0.153775    0.088091   -0.004777
C      -0.481555   -0.741709    1.194793
C       0.302317   -0.561782    2.515424
N       0.329122   -2.045091    2.711725
C      -0.276461   -2.272418    1.377155
C      -1.810422   -2.333920    1.445150
O      -1.907933   -0.884212    1.371661
H       0.337052    1.952658    1.094745
H       0.056718    2.179358   -0.710205
H      -0.649549   -0.227290   -0.923251
H       1.288735   -0.114821    2.351147
H      -0.229909   -0.020578    3.303468
H       1.272370   -2.408259    2.776898
H       0.255537   -2.932768    0.691134
H      -2.301801   -2.802823    0.583167
H      -2.218449   -2.733599    2.378569
