17

C      -0.577470    1.349117   -0.053822
C      -0.101663   -0.082905   -0.011481
C       1.298842   -0.489375   -0.346271
O       2.278551    0.470390   -0.660587
C       2.797324    1.335192    0.265418
O       3.595407    2.158100   -0.100691
C       2.368315    1.175752    1.667142
C       1.486078    0.246556    2.053538
C       0.829701   -0.641612    1.085606
H      -0.792045    1.644960   -1.085685
H      -1.495515    1.466913    0.530386
H       0.160265    2.048385    0.343290
H      -0.847725   -0.807786   -0.326641
H       1.460761   -1.375123   -0.950393
H       2.862675    1.840748    2.364254
H       1.248731    0.121420    3.106911
H       0.594788   -1.638527    1.443929
