18

C       0.093858    1.497186    0.040510
C       0.031746   -0.019457   -0.034561
O       1.065007   -0.693466   -0.088462
C      -1.257616   -0.654028   -0.050866
C      -1.290230   -2.141748   -0.145714
N      -2.646628   -2.470761    0.494822
H      -3.009459   -3.383304    0.213028
H      -2.522995   -2.469227    1.507109
C      -3.545050   -1.319152    0.118678
C      -2.553998   -0.106333    0.055295
O      -3.000244    1.035687    0.119779
H       1.028195    1.791907    0.523639
H       0.099055    1.902422   -0.978881
H      -0.774547    1.922442    0.546464
H      -1.341259   -2.575719   -1.157194
H      -0.488903   -2.644549    0.400257
H      -3.986690   -1.544839   -0.856623
H      -4.332361   -1.187931    0.861267
