17

C       0.162906    1.094758    0.411117
O      -0.060324   -0.112601   -0.306156
C      -1.335054   -0.636979   -0.126362
C      -2.406848    0.029949   -0.823628
C      -3.296878    0.605702   -1.392809
C      -1.464189   -2.144838   -0.011982
C      -0.284935   -2.661344    0.807458
O      -0.586299   -1.740365    1.895509
C      -1.731369   -1.276374    1.200445
H       1.182800    1.409008    0.180394
H      -0.535474    1.880878    0.096051
H       0.067711    0.931569    1.491351
H      -4.078604    1.110064   -1.905174
H      -2.118695   -2.723329   -0.648583
H      -0.414944   -3.695185    1.142595
H       0.716104   -2.505984    0.398195
H      -2.621817   -1.022405    1.763843
