18

O      -0.036233    1.466117    0.006289
C      -0.009852    0.066196    0.031328
C       0.338657   -0.675245    1.349426
C      -0.817309   -1.667004    1.038014
C      -1.782887   -2.040526    2.143613
O      -2.464552   -0.895544    2.677062
C      -2.833784    0.047292    1.772590
N      -2.448659    0.220752    0.581744
C      -1.409621   -0.628064    0.035298
H       0.872912    1.781966   -0.001506
H       0.583522   -0.341891   -0.801006
H       1.345169   -1.086345    1.457163
H       0.106746   -0.049136    2.215580
H      -0.461651   -2.573780    0.540680
H      -2.540553   -2.737338    1.759760
H      -1.283428   -2.509861    2.995805
H      -3.564236    0.718924    2.221104
H      -1.741588   -0.999456   -0.938040
