13

N       0.083494    1.365149    0.103032
C      -0.003503    0.011708    0.034448
C      -1.142915   -0.729613    0.017117
C      -1.101378   -2.170116   -0.012455
O      -2.038839   -2.923827   -0.025505
O       0.175589   -2.757091   -0.029256
N       1.340673   -2.017585   -0.025064
C       1.240964   -0.740166    0.006609
O       2.374494   -0.001541    0.006417
H       0.975635    1.796149   -0.069061
H      -0.739924    1.923015   -0.045184
H      -2.127648   -0.279355    0.029811
H       3.120270   -0.618074   -0.022604
