15

N      -0.122360    1.277051    0.085203
C      -0.022805    0.022106   -0.040403
O       1.178010   -0.625677   -0.075779
C       1.251407   -1.805370   -0.892629
C       0.253086   -2.881458   -0.473407
C      -1.130292   -2.283677   -0.281598
O      -1.380522   -1.748349    1.013905
C      -1.251374   -0.826276   -0.079601
H       0.808318    1.700866    0.106152
H       1.083399   -1.518975   -1.939785
H       2.281922   -2.153763   -0.798369
H       0.231983   -3.662771   -1.240341
H       0.562213   -3.347496    0.467507
H      -1.975237   -2.815950   -0.716535
H      -2.157633   -0.288882   -0.342375
