15

C      -0.035568   -3.817754   -0.099169
C      -0.007139   -2.611651   -0.047517
C       0.022936   -1.253243    0.008024
C       0.053564   -0.044058    0.060560
C       0.083346    1.405196    0.101173
O      -0.125883    1.974230    1.433553
C       1.073777    2.745872    1.302867
C       2.270283    1.857593    1.198036
C       1.428839    2.135331   -0.029861
H      -0.059433   -4.878441   -0.141628
H      -0.668631    1.818915   -0.582117
H       1.057519    3.766546    1.664743
H       3.231347    2.362478    1.198108
H       2.257495    0.879801    1.670290
H       1.811737    2.567213   -0.943473
