16

C      -0.035014    1.445018    0.221718
C       0.035776   -0.031120   -0.084280
O       1.071653   -0.592090   -0.372652
C      -1.250987   -0.865184   -0.030505
O      -0.974259   -2.186633   -0.401017
C      -1.887808   -0.822813    1.379646
C      -3.152732   -1.658649    1.435728
O      -4.216577   -1.237750    1.812333
H       0.857770    1.941782   -0.160004
H      -0.935046    1.900145   -0.201963
H      -0.077593    1.592007    1.307152
H      -1.960080   -0.412326   -0.744556
H      -0.014753   -2.207171   -0.559860
H      -1.164642   -1.248869    2.088239
H      -2.136641    0.196500    1.686204
H      -3.026354   -2.706494    1.095670
