23

C       0.104065    1.575804    0.186270
C       0.003889    0.050056    0.258837
C      -1.352016   -0.484696   -0.224289
C      -1.462110   -1.996681   -0.144586
O      -0.524665   -2.675424   -0.949998
C      -1.869886   -2.677989    1.141760
C      -2.780300   -2.715707   -0.072247
C      -4.117804   -2.025868   -0.069095
O      -5.051777   -2.897799    0.557868
H       1.082576    1.928217    0.527063
H      -0.040005    1.933109   -0.839325
H      -0.658227    2.053328    0.811979
H       0.803371   -0.390948   -0.350080
H       0.176705   -0.283271    1.290617
H      -2.148782   -0.024504    0.371020
H      -1.513011   -0.173648   -1.265052
H       0.333287   -2.615649   -0.516618
H      -1.358404   -3.594109    1.414909
H      -2.174068   -2.056870    1.978815
H      -2.782111   -3.658687   -0.610470
H      -4.058096   -1.067003    0.468148
H      -4.423980   -1.801229   -1.103651
H      -5.923164   -2.495961    0.491333
