16

C       0.027362    1.482335   -0.008994
C      -0.062877   -0.006141    0.043944
C      -1.153661   -0.753021   -0.188499
C      -1.116297   -2.201751   -0.105970
C       0.186654   -2.749252    0.245117
C       1.217193   -1.922276    0.458538
O       1.147905   -0.568033    0.372257
N      -2.200804   -2.865586   -0.341508
O      -1.977344   -4.253653   -0.215823
H       0.768933    1.799134   -0.750798
H      -0.939389    1.915117   -0.270457
H       0.345244    1.885608    0.958954
H      -2.088907   -0.271448   -0.444493
H       0.321114   -3.816998    0.333032
H       2.217886   -2.240436    0.722959
H      -2.847947   -4.611776   -0.413611
