17

C      -0.106022    1.489070    0.112147
C      -0.015278   -0.012914   -0.066750
O      -1.337261   -0.553073    0.130183
C      -1.450750   -1.866092    0.011000
N      -0.456910   -2.677642   -0.267873
O      -1.095440   -3.935452   -0.279870
C      -2.387565   -3.714246   -0.006883
C      -3.300406   -4.885516    0.043528
N      -2.676076   -2.462362    0.183256
H       0.881246    1.937989   -0.030034
H      -0.794045    1.926292   -0.616496
H      -0.459943    1.740158    1.115718
H       0.332723   -0.287519   -1.068796
H       0.665752   -0.473056    0.657872
H      -2.972731   -5.595291    0.808986
H      -4.309604   -4.545215    0.273618
H      -3.303920   -5.411450   -0.915868
