15

O       0.102548    1.403796   -0.021861
C       0.035532   -0.008567   -0.013791
C      -1.378444   -0.516318   -0.107765
C      -1.883973   -1.331010   -1.047254
C      -3.273892   -1.730262   -0.978340
N      -3.817094   -2.521305   -1.832242
C      -3.964398   -1.114204    0.166496
N      -3.465367   -0.330792    1.051313
O      -2.111703   -0.024822    0.930105
H      -0.410960    1.722061    0.728734
H       0.597114   -0.362406   -0.881489
H       0.504536   -0.431081    0.889239
H      -1.263791   -1.689696   -1.858701
H      -4.803996   -2.670448   -1.609051
H      -5.023234   -1.318107    0.318064
