16

O      -0.081487    1.409703   -0.025142
C      -0.009329    0.000481   -0.068822
C      -1.385264   -0.632302   -0.346604
C      -1.787100    0.044879   -1.684929
C      -0.619872   -0.769185   -2.269888
C      -0.840987   -1.867870   -1.210877
O       0.564000   -2.041442   -0.968757
C       0.639872   -0.629249   -1.329811
H       0.804016    1.746062    0.142683
H       0.468784   -0.411191    0.827928
H      -2.079644   -0.742879    0.483547
H      -2.741089   -0.332578   -2.064015
H      -1.766005    1.133182   -1.725758
H      -0.453341   -0.965752   -3.327304
H      -1.426626   -2.780425   -1.309644
H       1.625208   -0.301464   -1.661680
