21

C      -0.010329    1.508515   -0.033581
C      -0.022633    0.009236    0.038431
C      -1.120693   -0.737517   -0.106464
C      -1.071701   -2.216439   -0.066879
C      -0.113734   -2.944248   -1.025450
C       0.221144   -2.817135    0.433492
C       0.204437   -4.036287    1.319587
O       1.219087   -1.941984    0.887144
C       1.308755   -0.665619    0.272463
H       0.669952    1.868319   -0.817495
H      -1.006416    1.905458   -0.247337
H       0.340524    1.950804    0.908064
H      -2.086976   -0.263624   -0.261386
H      -1.998004   -2.725069    0.180701
H      -0.403397   -3.922025   -1.396073
H       0.403687   -2.325185   -1.749614
H      -0.586477   -4.726580    1.014835
H       1.163000   -4.562717    1.266006
H       0.033137   -3.746709    2.360965
H       1.875147   -0.732410   -0.673831
H       1.921988   -0.063963    0.953832
