13

N      -0.053458    1.314705    0.048648
C      -0.048738    0.050925    0.016471
O       1.082510   -0.734690   -0.043073
C       0.709197   -2.124827   -0.057903
C      -0.803971   -2.103036    0.000371
C      -1.217038   -0.839507    0.042625
C       1.237069   -2.801760   -1.239913
C       1.658390   -3.383107   -2.202345
H       0.898968    1.680907    0.014300
H       1.132801   -2.591518    0.843569
H      -1.394046   -3.008496   -0.004843
H      -2.227382   -0.461559    0.088455
H       2.036572   -3.888704   -3.056707
