16

C      -0.016698    1.499350    0.009687
O       1.249813    0.796366   -0.007262
C       0.079145    0.048663    0.001677
C      -0.504651   -0.970776    0.994998
O      -1.596715   -1.111185    0.014039
C      -0.525895   -0.961223   -0.988686
C       0.284272   -2.252333   -0.753613
N       1.553738   -2.034685   -0.024151
C       0.300167   -2.259477    0.730207
H      -0.241498    2.026963    0.935009
H      -0.261211    2.035822   -0.905486
H      -0.839647   -0.733679    2.003105
H      -0.882380   -0.714462   -1.987057
H       0.129871   -3.136151   -1.359774
H       2.090145   -2.900867   -0.034070
H       0.158694   -3.149106    1.330999
