17

O      -0.030812    1.424601    0.010041
C      -0.064006    0.020343   -0.065661
C      -1.374692   -0.741078   -0.047968
C      -2.633061    0.082126   -0.352842
O      -2.875205    1.133830    0.568233
C      -2.401180    0.559696   -1.785202
C      -1.267100    0.082376   -2.300659
C      -0.511281   -0.741033   -1.295493
O       0.158942   -1.892883   -1.699483
H      -0.259924    1.770650   -0.862403
H       0.752285   -0.427963    0.493100
H      -1.444481   -1.620078    0.580439
H      -3.529528   -0.548360   -0.311073
H      -2.028791    1.587663    0.684179
H      -3.097888    1.231325   -2.273824
H      -0.884776    0.266235   -3.299455
H       1.026184   -1.639507   -2.034247
