10

O       0.032143   -0.014545    0.002746
C       0.049631    1.184781    0.008920
N      -1.208739    1.904950    0.029041
N      -1.297510    3.118024    0.036758
O      -0.037572    3.920482    0.024906
N       1.166642    3.344622    0.006187
C       1.239933    2.039433   -0.001934
C       2.527369    1.446243   -0.021372
C       3.602824    0.909131   -0.037848
H       4.555812    0.438143   -0.052433
