14

O       0.089803   -0.011654   -0.014387
C       0.008909    1.193699    0.006297
C      -1.202370    2.042030   -0.015082
C      -0.862301    3.338338    0.008857
C       0.629440    3.571387    0.044028
C       1.190340    2.157719    0.075891
C       2.451230    1.734098    0.703286
O       2.333943    1.827270   -0.711731
H      -2.203293    1.632109   -0.047733
H      -1.564375    4.165304    0.007785
H       0.976794    4.109096   -0.846162
H       0.921858    4.173655    0.912325
H       3.085551    2.483198    1.175945
H       2.518965    0.721186    1.096356
