20

C      -0.281015    1.575198    0.048490
C      -0.011283    0.071510   -0.049639
O      -1.248516   -0.638610    0.082813
C       0.758091   -0.375841   -1.334780
C       2.127736   -0.847393   -0.829611
C       2.844515    0.306013   -0.096308
N       2.298097   -0.123717    1.237333
C       1.870024   -1.421561    0.590153
C       0.855772   -0.478506    1.083561
H       0.639668    2.162542    0.012135
H      -0.917521    1.905668   -0.782023
H      -0.797126    1.801965    0.985882
H      -1.864382   -0.275237   -0.562618
H       0.203541   -1.205096   -1.784563
H       0.849312    0.424169   -2.077987
H       2.708283   -1.428160   -1.545943
H       3.929818    0.182718   -0.058451
H       2.616979    1.334566   -0.399262
H       2.119254   -2.395043    0.994665
H       0.369764   -0.624645    2.041884
