22

C      -1.414903   -0.898778   -0.038980
C       0.095311   -0.738408    0.171904
C       0.637441   -1.816156    1.111764
O       0.010152   -1.655061    2.377348
C       0.845874   -0.755759   -1.178870
C       2.300664   -0.372790   -1.089287
C       2.684755    1.028916   -0.693271
N       3.148698   -1.288387   -1.372066
O       4.472449   -0.826025   -1.249842
H      -1.822237   -0.072496   -0.630690
H      -1.636814   -1.831791   -0.571348
H      -1.933216   -0.926582    0.921803
H       0.272041    0.227740    0.663651
H       0.425178   -2.811040    0.684797
H       1.730004   -1.725729    1.197118
H       0.335591   -2.344307    2.962979
H       0.774601   -1.750959   -1.630314
H       0.342274   -0.054843   -1.858272
H       3.128837    1.042005    0.308332
H       3.445461    1.418051   -1.375524
H       1.818994    1.694220   -0.695146
H       4.979106   -1.596245   -1.527175
