19

C       0.340099    1.386855   -0.225908
N       0.478493   -0.055742   -0.080108
C       0.539978   -0.774895   -1.099847
O       0.508688   -0.443179   -2.451077
C       0.858574   -1.819298   -2.841149
C       2.225775   -1.841903   -3.493558
O       2.228017   -1.080237   -4.685466
C       0.740290   -2.265374   -1.356142
N       1.834383   -2.996353   -0.755592
H       1.078988    1.882396    0.412405
H       0.460799    1.744906   -1.255133
H      -0.648903    1.692565    0.133936
H       0.099854   -2.207915   -3.525838
H       2.986401   -1.480172   -2.783819
H       2.488052   -2.869405   -3.762359
H       1.915248   -0.199093   -4.449006
H      -0.186009   -2.822149   -1.191682
H       2.607004   -2.373958   -0.541234
H       1.540165   -3.396896    0.128041
