21

C      -0.726058    1.201366    0.047837
C       0.099247   -0.081854   -0.105140
C       1.197187   -0.001015   -1.143117
C       2.312579   -0.616825   -0.762282
C       2.184429   -1.225536    0.609393
C       0.884166   -0.593697    1.176917
C       1.218775    0.547358    2.154876
C       0.005829   -1.595640    1.902109
O       0.203378   -2.780798    1.989080
H      -0.104171    2.060560    0.313341
H      -1.223957    1.434598   -0.899111
H      -1.506388    1.096317    0.808478
H      -0.601255   -0.874196   -0.414850
H       1.034354    0.479350   -2.102525
H       3.208928   -0.718650   -1.364141
H       2.088776   -2.317289    0.560107
H       3.048495   -1.019998    1.251971
H       1.804064    1.322257    1.651468
H       0.321280    1.015136    2.570893
H       1.815642    0.165952    2.989792
H      -0.900641   -1.140219    2.368352
