16

C      -0.148821    1.572424    0.012955
C       1.383243    1.547715   -0.251372
N       1.399764    0.155653    0.225588
C      -0.063795    0.048089    0.305289
C       2.273491   -0.815752   -0.104890
C       2.174819   -2.195590   -0.053380
N       3.375135   -2.676830   -0.478383
N       4.187920   -1.786484   -0.784175
O       3.468990   -0.471238   -0.544221
H      -0.437048    2.169880    0.878175
H      -0.767488    1.851878   -0.839067
H       1.668207    1.644402   -1.305131
H       1.997894    2.227648    0.344936
H      -0.434266   -0.287138    1.279058
H      -0.491355   -0.590413   -0.478176
H       1.365344   -2.831404    0.256559
