21

C       0.005917    1.546285   -0.148364
C      -0.056756    0.051493   -0.047509
C      -0.891943   -0.669973    0.932689
N       0.575908   -0.729015    1.102590
C       1.046098   -1.754180    0.095763
C       0.487329   -0.921918   -1.093911
C       2.538073   -1.918711    0.135285
C       3.151133   -3.014306    0.921430
N       3.169878   -3.058245   -0.553450
H       0.994436    1.879621   -0.482548
H      -0.734744    1.918555   -0.866325
H      -0.199127    2.010000    0.820905
H      -1.381678   -0.082832    1.704169
H      -1.426534   -1.575520    0.648946
H       0.567570   -2.731759    0.246839
H      -0.242354   -1.393020   -1.759329
H       1.287915   -0.491413   -1.700896
H       3.092896   -0.987907    0.032337
H       4.122217   -2.872740    1.386524
H       2.486696   -3.688034    1.456813
H       2.450372   -3.698985   -0.883215
