17

C      -0.050042   -1.234604   -0.067154
C      -0.007070   -0.035466   -0.004663
C       0.026323    1.412622    0.080490
C      -0.479371    1.994261    1.424605
O       0.041649    3.318344    1.469433
C       1.327318    3.304265    0.886712
C       2.448813    2.626709    1.704015
O       2.398913    1.448361    0.866031
C       1.427796    2.046652   -0.012423
H      -0.078251   -2.294514   -0.123297
H      -0.574567    1.848009   -0.728991
H      -1.567061    2.056970    1.489028
H      -0.107096    1.383133    2.257452
H       1.532374    4.295084    0.480931
H       3.425838    3.121929    1.649494
H       2.202249    2.412332    2.749896
H       1.797927    2.135336   -1.037504
