17

N       0.203806    1.395924   -0.047455
C      -0.012171   -0.001096   -0.029184
C      -1.137652   -0.802275   -0.046897
C      -0.690119   -2.155940    0.024531
C       0.668800   -2.111392    0.071538
N       1.114421   -0.833975    0.039933
O       1.353342   -3.279750    0.089497
C       0.300082   -4.283709    0.248729
C      -1.086280   -3.606949   -0.031069
H      -0.155907    1.827244   -0.892293
H      -0.233593    1.861257    0.740743
H      -2.153005   -0.437619   -0.097056
H       2.060277   -0.496954    0.084957
H       0.532414   -5.103518   -0.433601
H       0.355833   -4.650868    1.278978
H      -1.817841   -3.916412    0.723327
H      -1.488973   -3.905552   -1.008279
