21

C      -0.093599    1.412565    0.112663
C       0.200632   -0.081626   -0.007652
C       0.818657   -0.472762   -1.333686
O       1.129233    0.345926   -2.174760
C       1.054357   -1.963079   -1.635915
O       1.572956   -2.098119   -2.932084
C       1.974072   -2.608840   -0.613413
C       1.414427   -3.281740    0.617837
C       1.998011   -4.109301   -0.498119
H       0.819303    2.000781   -0.007300
H      -0.794216    1.738353   -0.660602
H      -0.527481    1.640063    1.090072
H       0.880936   -0.418850    0.784946
H      -0.708542   -0.681663    0.130664
H       0.070060   -2.462071   -1.568874
H       1.646493   -1.189887   -3.269490
H       2.930597   -2.103756   -0.506333
H       1.967777   -3.194969    1.546204
H       0.337022   -3.296786    0.747122
H       1.315121   -4.670952   -1.126272
H       2.954977   -4.592311   -0.338138
