19

C       0.055556    1.432749   -0.054407
N      -0.019138   -0.013017    0.005930
C       0.551905   -0.666401   -0.913112
N       0.538828   -2.067632   -0.947258
C      -0.154316   -2.804984    0.109075
C       1.184990   -2.707580   -1.983233
O       1.770110   -2.114643   -2.876073
C       1.159335   -4.236441   -2.002031
O       1.857952   -4.707604   -3.112797
H       0.618026    1.813162   -0.920693
H      -0.957451    1.849701   -0.086910
H       0.525758    1.812579    0.859785
H       1.100385   -0.239276   -1.754769
H      -0.963094   -3.415331   -0.302533
H       0.537410   -3.450548    0.657592
H      -0.572972   -2.066696    0.790560
H       1.599085   -4.616252   -1.065836
H       0.112357   -4.579585   -2.016460
H       2.168495   -3.906782   -3.568040
