21

O      -0.065757    1.413887   -0.050848
C       0.024405   -0.004233    0.027648
C       0.639412   -0.487322    1.378115
C      -0.595188   -0.878997    2.198157
C      -1.356089   -2.191372    1.775997
C      -2.671400   -1.416833    2.061552
C      -1.849961   -0.210892    1.554222
C      -1.403929   -0.556246    0.101379
C      -1.298710   -2.107697    0.237241
H       0.826379    1.771875   -0.005830
H       0.569350   -0.399561   -0.842473
H       1.337267   -1.320694    1.242242
H       1.195421    0.330515    1.848603
H      -0.509118   -0.768656    3.280010
H      -1.140611   -3.156331    2.237142
H      -3.571190   -1.715772    1.514289
H      -2.896115   -1.338155    3.128538
H      -2.126686    0.823385    1.749810
H      -2.045202   -0.198220   -0.704671
H      -0.375085   -2.505603   -0.195317
H      -2.136773   -2.633411   -0.228759
