23

C      -0.107320    1.532284    0.066239
C       0.063656    0.015328    0.041330
C       1.005623   -0.548320   -1.071931
C       2.004704   -1.352479   -0.204415
C       3.106765   -2.104702   -0.912991
C       2.300225   -0.330943    0.936304
C       0.795636   -0.579799    1.262074
O       0.196119   -0.234026    2.471483
C       1.038831   -2.048862    0.804198
H       0.855866    2.051074    0.117131
H      -0.620636    1.879795   -0.836668
H      -0.698425    1.838537    0.934152
H      -0.930017   -0.442832   -0.024523
H       0.481795   -1.183642   -1.793420
H       1.506741    0.249340   -1.631657
H       3.739970   -1.423205   -1.493288
H       3.750794   -2.635593   -0.203733
H       2.695399   -2.844872   -1.609365
H       2.962613   -0.747851    1.701772
H       2.628241    0.676197    0.665589
H       0.709160   -0.620334    3.188096
H       0.189817   -2.615646    0.409120
H       1.576483   -2.640042    1.552311
