23

C      -0.023209    1.468664   -0.440827
C      -0.047169    0.088369    0.228507
C      -1.413531   -0.564155    0.196554
C      -1.895125   -1.341247   -1.023171
O      -1.000833   -1.621964   -2.070547
C      -1.577828   -2.075457    0.255449
O      -0.415184   -2.856845    0.232028
C      -2.675109   -2.699479    1.089220
C      -3.110323   -4.074487    0.572083
H       0.971391    1.921681   -0.380939
H      -0.296900    1.410742   -1.501466
H      -0.732346    2.154280    0.035562
H       0.685616   -0.572516   -0.242392
H       0.271741    0.186023    1.273356
H      -2.195122    0.008361    0.693152
H      -2.932678   -1.238609   -1.338523
H      -0.699304   -0.793588   -2.457050
H      -0.111235   -2.861423   -0.686455
H      -2.315147   -2.787854    2.122319
H      -3.530511   -2.013966    1.116219
H      -3.528381   -4.003024   -0.437950
H      -2.254260   -4.752612    0.533218
H      -3.872178   -4.516462    1.221249
