19

C      -0.423956    1.502176   -0.118975
C       0.156819    0.102200   -0.068543
O       1.355572    0.049140   -0.840942
C       1.965989   -1.152514   -0.456902
O       1.676365   -1.356678    0.917226
C       0.635866   -0.455524    1.292629
C       1.186748    0.605131    2.265957
C       1.718099    0.020083    3.489563
C       2.136317   -0.464522    4.506316
H       0.296368    2.244478    0.232681
H      -0.696245    1.753624   -1.147204
H      -1.326416    1.565405    0.496711
H      -0.572541   -0.613290   -0.484630
H       1.571444   -2.002566   -1.041524
H       3.047328   -1.065190   -0.606745
H      -0.156640   -1.025319    1.790444
H       1.967400    1.178939    1.752691
H       0.385011    1.309884    2.520556
H       2.515878   -0.893543    5.400111
