17

C       0.168178    1.588904   -0.331605
C       0.009258    0.129511   -0.065592
C      -0.590682   -0.867214   -0.797481
C      -0.443983   -2.102299   -0.092703
C       0.238288   -1.802110    1.058296
N       0.510609   -0.461385    1.079698
O       0.693981   -2.559655    2.097826
C      -0.157836   -3.488642    2.614653
N       0.279096   -4.324654    3.447665
H      -0.311947    2.208300    0.436700
H       1.222416    1.889496   -0.380904
H      -0.290909    1.839487   -1.290616
H      -1.078038   -0.731551   -1.751124
H      -0.770036   -3.081163   -0.405237
H       1.008530   -0.001049    1.822573
H      -1.176695   -3.384897    2.225041
H      -0.477238   -4.930464    3.759308
