23

C      -0.154924    1.357389    0.090539
O      -0.105751   -0.044188   -0.011022
C       0.695490   -0.490122   -1.084642
C       0.691598   -2.014397   -1.077703
C       1.407810   -2.656338   -2.277188
C       2.905104   -2.325629   -2.325129
C       1.179040   -4.189345   -2.246887
C       1.677755   -4.883636   -3.427840
C       2.086216   -5.437861   -4.413681
H       0.843622    1.792313    0.258831
H      -0.578742    1.820029   -0.815481
H      -0.793712    1.602995    0.942596
H       0.297809   -0.110839   -2.043298
H       1.718586   -0.092534   -0.982345
H       1.145270   -2.363931   -0.141049
H      -0.355560   -2.339687   -1.056993
H       0.942125   -2.280615   -3.198377
H       3.079615   -1.254247   -2.457710
H       3.401454   -2.632818   -1.396319
H       3.389536   -2.848696   -3.154073
H       1.657279   -4.605222   -1.349177
H       0.105574   -4.390625   -2.139434
H       2.444152   -5.938092   -5.279007
