16

O      -0.276096   -0.011113    0.012469
C      -0.188410    1.176972    0.056780
C      -1.167481    2.338230   -0.089802
O      -0.883088    3.190109    1.043828
C      -0.023699    3.285366   -0.084192
C       1.032262    2.174213    0.085920
C       1.931999    2.223480    1.287977
C       3.125761    1.345832    1.359015
N       3.286859    2.801164    1.196672
H      -2.155460    2.399890   -0.529045
H       0.055063    4.240264   -0.589070
H       1.609514    2.002837   -0.832916
H       1.418181    2.473529    2.211835
H       3.451316    0.951420    2.316863
H       3.329987    0.696922    0.510981
H       3.508634    3.014622    0.226357
