21

C      -0.286043    0.993086    0.115265
O       0.511381   -0.156841   -0.085421
C       0.892808   -0.798184    1.098718
C       0.046429   -1.930630    1.657435
C      -1.316435   -2.262738    1.089736
O      -2.363678   -1.684180    1.860886
C       1.353823   -2.213138    0.926336
C       1.411140   -2.792156   -0.477961
O       2.414554   -2.162032   -1.257702
H       0.218795    1.724632    0.762370
H      -0.459220    1.442714   -0.864793
H      -1.257919    0.741776    0.564424
H       1.419326   -0.147086    1.797391
H       0.083412   -2.054898    2.737145
H      -1.383184   -1.954169    0.038374
H      -1.494262   -3.342567    1.129015
H      -2.180601   -0.742738    1.942152
H       2.190970   -2.508029    1.552446
H       1.680707   -3.852090   -0.430115
H       0.433088   -2.728012   -0.970232
H       2.149909   -1.236881   -1.324793
