18

O      -0.140512    0.251994    0.840698
C      -0.096936    1.359891    0.348808
N      -1.170050    2.154568    0.064745
C      -0.868396    3.446120   -0.518737
C       0.666323    3.574014   -0.317030
C       1.085193    4.292574    0.946685
C       1.892939    3.557315    1.709221
C       2.181888    2.203534    1.107490
C       1.169756    2.128702   -0.058689
H      -2.106088    1.821700    0.231803
H      -1.136169    3.480915   -1.583575
H      -1.413840    4.251049   -0.012440
H       1.114719    4.043401   -1.199602
H       0.763182    5.305628    1.164715
H       2.330995    3.882961    2.646436
H       3.219405    2.143411    0.754044
H       2.036732    1.370887    1.804232
H       1.587339    1.640149   -0.943146
