20

C      -0.030887    1.519033   -0.037563
C      -0.024992    0.011942    0.054436
C      -1.292863   -0.735153   -0.354402
C      -1.126195   -2.171233    0.186126
C      -0.228346   -2.028215    1.434704
C       0.623725   -0.799224    1.162459
N       1.252894   -0.654801   -0.171328
C       1.364932   -0.164145    2.280759
O       1.192044   -0.437327    3.444584
H       0.934065    1.938688    0.252704
H      -0.232473    1.831099   -1.068825
H      -0.810517    1.950089    0.599300
H      -2.152767   -0.240007    0.112639
H      -1.457312   -0.703074   -1.437757
H      -2.084362   -2.643707    0.413980
H      -0.642727   -2.807506   -0.562801
H      -0.816593   -1.841765    2.338796
H       0.374234   -2.921575    1.628765
H       1.157539   -1.515026   -0.705949
H       2.108230    0.597312    1.960824
