19

C      -0.239024    1.355023    0.005578
N       0.137434   -0.043535   -0.006176
C       0.003875   -0.780161    1.242115
C      -0.004164   -0.751271   -1.170648
N       0.083448   -2.066416   -1.299565
C      -0.071539   -2.260385   -2.646699
C      -0.036694   -3.614624   -3.270760
N      -0.256536   -1.162681   -3.354208
N      -0.216058   -0.188529   -2.386092
H       0.273597    1.898716   -0.795563
H      -1.324433    1.516050   -0.099133
H       0.080472    1.798825    0.951224
H      -1.045166   -0.881224    1.559664
H       0.419534   -1.777772    1.106396
H       0.557482   -0.258140    2.028249
H      -0.816257   -4.256180   -2.847485
H      -0.187799   -3.535091   -4.348598
H       0.923759   -4.104386   -3.080663
H      -0.348952    0.772688   -2.643072
