17

C      -0.048065    1.427977   -0.191195
C      -0.101144   -0.058624   -0.074901
O       0.638110   -0.816190   -1.156319
C       0.051801   -1.901352   -0.497247
N       0.724647   -2.708988    0.211172
C       0.316648   -2.259380    1.593014
C      -0.340131   -0.878384    1.328219
C      -1.154543   -1.054469    0.096602
N      -2.554063   -1.018781   -0.091843
H       0.964107    1.802301   -0.014564
H      -0.363789    1.739669   -1.191325
H      -0.720563    1.877743    0.544036
H      -0.360787   -2.935224    2.138799
H       1.253978   -2.196467    2.153627
H      -0.687010   -0.248563    2.145652
H      -2.798949   -1.008372   -1.077037
H      -3.005947   -1.823238    0.331137
