21

C       0.175212    1.546731    0.349937
C       1.475825    2.040868   -0.336480
C       2.364047    0.786780   -0.473792
C       3.088205    0.395632    0.849604
C       2.903203   -1.125758    1.006226
C       1.552104   -1.400320    0.361884
O       0.443641   -0.830907    1.109845
C       0.082930    0.048839    0.007784
C       1.357932   -0.359444   -0.758050
H       0.222503    1.649085    1.438168
H      -0.701149    2.105187    0.008832
H       1.238112    2.434345   -1.331811
H       1.969181    2.847335    0.215250
H       3.091632    0.895890   -1.282791
H       4.140673    0.691839    0.841675
H       2.619491    0.908162    1.695235
H       3.671590   -1.676440    0.447778
H       2.944970   -1.462137    2.046745
H       1.367444   -2.454505    0.127512
H      -0.881932   -0.248138   -0.417980
H       1.282778   -0.676661   -1.797570
