19

C      -0.026441    1.496846    0.064043
C       0.019608   -0.000446   -0.048427
C       0.253788   -0.763272   -1.345347
C       0.168895   -2.167415   -0.697651
C       0.329090   -3.419270   -1.507982
O       1.130922   -2.076507    0.360480
C       0.623488   -0.927056    1.006114
C      -0.865919   -0.953830    0.752974
O      -1.091217   -2.116398   -0.017242
H       0.918309    1.950520   -0.256514
H      -0.827548    1.919118   -0.553246
H      -0.207749    1.811707    1.097472
H      -0.532807   -0.607924   -2.087958
H       1.235623   -0.576188   -1.787314
H       1.311574   -3.433025   -1.985137
H       0.236209   -4.293735   -0.860250
H      -0.441447   -3.465820   -2.280797
H       1.135282   -0.634826    1.911905
H      -1.658017   -0.685029    1.437165
