20

C      -0.181580    1.555181    0.012246
C       0.024508    0.032761   -0.004666
C       0.816987   -0.485887   -1.208775
C       2.265895   -0.091823   -1.360293
C       1.906811   -1.404341   -0.689214
C       1.785262   -1.335749    0.794995
C       0.797081   -0.524921    1.190722
C       0.432095   -0.173832    2.599075
H       0.776251    2.085090    0.022066
H      -0.734632    1.879407   -0.875053
H      -0.751349    1.871986    0.891884
H      -0.975712   -0.429171   -0.014558
H       0.272329   -0.728243   -2.114170
H       2.676124   -0.132613   -2.364493
H       2.677704    0.694120   -0.735691
H       2.168468   -2.337002   -1.177181
H       2.457003   -1.862591    1.465151
H       1.047952   -0.720178    3.318812
H       0.556946    0.898211    2.797373
H      -0.621009   -0.405932    2.807029
