22

C       0.012504    1.532637   -0.021967
C      -0.030857   -0.004119   -0.028180
C      -1.496761   -0.472696    0.082455
C       0.630027   -0.541530   -1.312776
C       0.991949   -2.024778   -1.208402
C       1.978822   -2.238877   -0.057658
C       1.572977   -1.558859    1.244491
O       2.010897   -1.913647    2.324461
N       0.727856   -0.486836    1.134883
H       1.045374    1.890393   -0.056046
H      -0.525549    1.937454   -0.884929
H      -0.458864    1.934857    0.881927
H      -2.097503   -0.073573   -0.741449
H      -1.570978   -1.563169    0.068231
H      -1.939788   -0.123272    1.020916
H      -0.045201   -0.358708   -2.154886
H       1.543931    0.034021   -1.506978
H       0.089681   -2.625763   -1.045595
H       1.427602   -2.374057   -2.150216
H       2.134738   -3.295936    0.169714
H       2.962236   -1.831626   -0.327666
H       0.483291   -0.089986    2.033074
