25

C       0.007019    1.560943    0.187670
C       0.016528    0.036978    0.050941
C       0.679146   -0.448635   -1.242472
O       2.043662   -0.038851   -1.322218
C       0.543155   -1.977253   -1.424398
O      -0.831028   -2.361908   -1.414015
C       1.301744   -2.538104   -2.647484
C       1.341999   -4.070853   -2.588103
C       0.715393   -2.058507   -3.984383
H       1.020534    1.965091    0.114060
H      -0.590882    2.023283   -0.605832
H      -0.418030    1.870179    1.147257
H       0.552345   -0.413051    0.901101
H      -1.000052   -0.365767    0.088975
H       0.195117    0.049625   -2.094284
H       2.488766   -0.358148   -0.528738
H       0.961801   -2.454153   -0.525794
H      -1.246564   -1.983609   -2.196564
H       2.323672   -2.150641   -2.573950
H       0.327881   -4.482634   -2.586947
H       1.879368   -4.485303   -3.447126
H       1.842914   -4.420582   -1.678819
H      -0.314485   -2.410643   -4.125232
H       0.722856   -0.968203   -4.074201
H       1.299021   -2.457960   -4.819370
