17

O       0.123254    1.431201    0.359153
C       0.048518    0.071687    0.000315
C      -1.387985   -0.492903    0.035408
C      -2.228405   -0.096324   -1.203103
C      -2.246203    1.339350   -1.474778
N      -2.236600    2.473550   -1.699137
C      -1.385006   -2.037793    0.122829
C      -0.804196   -2.538821    1.366165
N      -0.346294   -2.927526    2.353081
H      -0.240766    1.973397   -0.349173
H       0.497133   -0.125319   -0.988463
H       0.650825   -0.465408    0.739858
H      -1.868627   -0.088019    0.931575
H      -1.833502   -0.599131   -2.095542
H      -3.263992   -0.434174   -1.083283
H      -2.407226   -2.425031    0.042836
H      -0.823156   -2.462506   -0.719072
