20

C       0.179206    1.567072   -0.221201
C      -0.022417    0.060008    0.031026
C       0.637812   -0.459984    1.265087
C       0.103298   -0.812092    2.487654
N      -1.278013   -0.776746    2.813527
C       1.167750   -1.284264    3.316238
C       2.329748   -1.195262    2.579787
N       3.684350   -1.462352    2.879267
N       2.003947   -0.688401    1.351448
H       1.241076    1.813692   -0.329267
H      -0.332718    1.886919   -1.135212
H      -0.209330    2.159203    0.613472
H      -1.093316   -0.155835    0.116127
H       0.330986   -0.497555   -0.848127
H      -1.652788    0.164947    2.790337
H      -1.439088   -1.143514    3.743337
H       1.082221   -1.664955    4.323866
H       3.831591   -1.463374    3.881361
H       3.982991   -2.369294    2.529631
H       2.687203   -0.434641    0.659094
