17

C      -0.026782    1.542268    0.043599
C       0.118324    0.034441    0.048570
C       1.362119   -0.730012   -0.222529
C       2.601652   -0.005200    0.312833
C       1.964297   -0.071243    1.722881
O       2.379328    0.165130    2.818744
C       0.718671   -0.771869    1.218994
C      -0.011929   -1.784487    1.894437
C      -0.620516   -2.642987    2.478622
H       0.853468    2.055808    0.436464
H      -0.198570    1.902288   -0.976717
H      -0.884204    1.842150    0.653678
H      -0.769657   -0.479115   -0.313954
H       1.391010   -1.570320   -0.903615
H       3.504253   -0.623063    0.298698
H       2.838483    0.977638   -0.102507
H      -1.152028   -3.400267    2.999409
