18

N       0.136642    1.112746    0.400556
C      -0.045646   -0.108579   -0.162486
O       0.837467   -0.704070   -0.767139
C      -1.398717   -0.735772   -0.023094
C      -2.561690   -0.598556    0.999178
C      -2.998116   -1.733522    0.019623
C      -2.491760   -0.834572   -1.143701
C      -1.543860   -2.275606    0.144027
O      -1.034327   -3.085696   -0.872542
H       1.034469    1.561563    0.315632
H      -0.600975    1.579307    0.898005
H      -2.346404   -0.887900    2.032007
H      -3.153300    0.319281    0.952549
H      -3.925356   -2.304657    0.059493
H      -3.057009    0.080050   -1.340402
H      -2.191896   -1.344976   -2.056737
H      -1.274930   -2.656985    1.139561
H      -0.164498   -2.717110   -1.087002
