15

N      -0.040587    1.443233    0.163017
C       0.102770    0.075795    0.005104
N      -0.917228   -0.748885   -0.010269
H      -1.877191   -0.386471   -0.009444
C      -1.007995   -2.099872   -0.018598
C      -2.244006   -2.793600   -0.038717
O      -3.374427   -2.274242   -0.063038
C      -1.782742   -4.197228   -0.019809
C      -0.432523   -4.180958    0.008908
O       0.091506   -2.908310    0.011945
H       0.664705    1.990677   -0.311548
H      -0.967222    1.811789   -0.009625
H       1.100101   -0.339401    0.002955
H      -2.410763   -5.074505   -0.027001
H       0.309860   -4.963299    0.028108
