20

C      -0.204740    1.548628    0.020179
C       0.051257    0.030240    0.013462
C       0.802543   -0.456360   -1.201205
C       2.078394   -0.844658   -1.167335
C       2.799414   -1.360666   -2.384655
C       1.786655   -1.734809   -3.467942
O       0.833266   -0.701754   -3.647461
C       0.030838   -0.504198   -2.501391
H       0.739741    2.100597   -0.007945
H      -0.801397    1.865946   -0.840711
H      -0.746316    1.845487    0.923799
H       0.612534   -0.243757    0.913479
H      -0.913995   -0.491986    0.080156
H       2.631744   -0.800039   -0.231284
H       3.498266   -0.603627   -2.767089
H       3.407378   -2.238060   -2.128550
H       2.268488   -1.878880   -4.439099
H       1.281408   -2.676720   -3.195286
H      -0.744225   -1.292135   -2.430621
H      -0.500628    0.439545   -2.669595
