27

C      -0.057292    1.513934    0.038950
C       0.010213   -0.013486   -0.028890
C       0.738556   -0.510470   -1.270444
O       0.751238   -1.920758   -1.258574
C       1.400546   -2.489731   -2.375410
C       1.308250   -4.014511   -2.293955
C      -0.157036   -4.469865   -2.298102
C       2.137059   -4.648092   -3.425567
C       2.261251   -6.172995   -3.344768
H       0.944189    1.958018    0.059221
H      -0.585572    1.929457   -0.826386
H      -0.584205    1.844889    0.938513
H       0.519725   -0.411935    0.855979
H      -0.999693   -0.439599   -0.025389
H       0.238183   -0.138886   -2.182462
H       1.770617   -0.117120   -1.291855
H       0.934255   -2.131796   -3.311606
H       2.457789   -2.173195   -2.401568
H       1.757504   -4.306269   -1.333940
H      -0.248607   -5.543003   -2.109438
H      -0.720365   -3.938412   -1.528019
H      -0.626842   -4.258683   -3.267146
H       1.695471   -4.369572   -4.392753
H       3.143703   -4.209945   -3.414366
H       2.695694   -6.483513   -2.387780
H       1.290236   -6.666946   -3.444373
H       2.907129   -6.554687   -4.141714
