22

C      -0.009488    1.597825    0.002185
C       0.011969    0.059725   -0.010794
C       0.605841   -0.430122   -1.341859
C       0.740229   -0.515545    1.231838
C       0.197301    0.033962    2.554930
C       0.958317   -2.054471    1.247585
O       2.405491   -1.861327    1.162102
C       2.262673   -0.491526    1.156341
N       3.126883    0.417704    1.110359
H       1.009021    1.994431    0.061131
H      -0.469436    1.974357   -0.916802
H      -0.581791    1.998429    0.842460
H      -1.025875   -0.299608    0.052524
H       1.631808   -0.069029   -1.465420
H       0.618336   -1.520060   -1.429851
H       0.014179   -0.044092   -2.177388
H      -0.887878   -0.105228    2.616829
H       0.655029   -0.478992    3.406251
H       0.415346    1.098674    2.657311
H       0.689770   -2.559102    2.179334
H       0.589639   -2.622915    0.392003
H       4.072878    0.033489    1.071385
