21

C       0.464594    1.442150   -0.354607
C      -0.037161    0.072145    0.109058
O       0.093798   -0.908182   -0.916877
C       1.375958   -1.528024   -0.817035
C       1.921437   -1.234294    0.599342
C       0.736467   -0.544325    1.302279
C       1.090418    0.424385    2.407024
C       2.268264    0.277978    3.271919
O       2.238859    1.261181    2.234244
H       1.540857    1.438032   -0.548052
H      -0.051733    1.720816   -1.277314
H       0.267594    2.210660    0.398955
H      -1.108776    0.140075    0.329762
H       1.237641   -2.599313   -0.998977
H       2.051040   -1.142892   -1.593402
H       2.235369   -2.145400    1.113637
H       2.777449   -0.555913    0.563604
H       0.083753   -1.309322    1.741983
H       0.234263    0.952368    2.832709
H       2.245961    0.671187    4.287210
H       2.958151   -0.548313    3.109867
