14

O       0.142686    1.427326    0.270395
C       0.040900    0.062471    0.036706
C      -1.310078   -0.668328    0.010374
C      -2.089996   -0.376614   -1.212287
C      -2.024621    0.882012   -1.908369
C      -1.985836    1.929282   -2.500139
N      -0.968496   -1.384908   -1.294743
C       0.250921   -0.566867   -1.373698
O       1.076903   -0.535700   -2.224121
H      -0.371150    1.885575   -0.406974
H       0.720656   -0.436121    0.736798
H      -1.743244   -1.221745    0.834969
H      -3.051348   -0.877512   -1.288756
H      -1.955714    2.845732   -3.037671
