17

C      -0.017835    1.413425    0.413726
C       0.009501    0.010691   -0.136626
O       0.968318   -0.452305   -0.717978
C      -1.313441   -0.812215   -0.024252
O      -2.220280   -0.179256   -0.927651
C      -1.078106   -2.271621   -0.483147
O      -0.789677   -2.293847   -1.868502
C      -1.847262   -0.783128    1.331643
C      -2.239534   -0.808018    2.467431
H       0.867717    1.958692    0.086274
H      -0.929875    1.918273    0.083905
H      -0.047788    1.376474    1.507486
H      -2.037382   -0.610588   -1.778893
H      -0.282369   -2.727940    0.116425
H      -2.001928   -2.836039   -0.335211
H       0.094889   -1.908145   -1.947860
H      -2.601188   -0.820085    3.466434
