18

C      -0.080958    1.430809   -0.016561
C      -0.072093   -0.023599   -0.062478
C      -0.071278   -1.226226   -0.098409
C      -0.044385   -2.680675   -0.148785
O      -1.346246   -3.201559    0.064297
C      -1.398976   -4.616007   -0.003562
C      -2.869892   -4.994747    0.071281
O      -3.602899   -4.416300   -0.989005
H       0.605805    1.810234    0.747875
H       0.216311    1.863308   -0.978081
H      -1.081745    1.807536    0.221221
H       0.342478   -3.018819   -1.125337
H       0.647657   -3.072733    0.615888
H      -0.967881   -4.968901   -0.954482
H      -0.830704   -5.073255    0.823422
H      -2.976675   -6.081362   -0.011806
H      -3.267852   -4.689363    1.052220
H      -3.357865   -3.483097   -0.994397
