19

O      -0.485261    0.150778    0.446928
C      -0.173444    1.168390   -0.113823
C       1.242593    1.740251   -0.104045
C       1.521928    2.751832   -1.218180
C       1.637162    2.111368   -2.585817
C       0.426564    1.913091   -3.469755
C       1.473972    2.937139   -3.833962
C       1.483131    2.306032    1.300297
O       1.864786    3.423313    1.522167
H      -0.923541    1.796219   -0.642457
H       1.909304    0.867837   -0.170460
H       0.727285    3.509258   -1.225430
H       2.440450    3.293476   -0.969802
H       2.386496    1.324500   -2.641293
H       0.360296    1.007197   -4.061765
H      -0.531552    2.281973   -3.118326
H       1.217123    3.984801   -3.715936
H       2.124481    2.733010   -4.676900
H       1.272844    1.580548    2.114182
