18

C       0.280413    1.346495   -0.113482
O      -0.290222    0.133599    0.329620
C       0.550611   -0.578679    1.196711
C      -0.004057   -2.019757    1.481032
N       1.228404   -2.525525    0.853533
C       2.131846   -3.518420    0.620646
C       3.279229   -2.875287    0.172240
C       3.068490   -1.461253    0.182230
C       1.769032   -1.296843    0.613547
H       1.206570    1.171575   -0.679780
H      -0.450892    1.828214   -0.766137
H       0.506671    2.020116    0.728047
H       0.757815    0.012922    2.101373
H      -0.108917   -2.284450    2.536735
H      -0.918183   -2.255597    0.931236
H       1.909082   -4.565211    0.747643
H       4.180621   -3.375813   -0.150319
H       3.784174   -0.703548   -0.095201
