17

C       0.174263    1.554852   -0.191902
C       0.116283    0.066306    0.003970
N      -1.167760   -0.506636   -0.575002
H      -1.250604   -0.322087   -1.580145
H      -1.202046   -1.517077   -0.418873
H      -1.976971   -0.087776   -0.107025
C       1.280841   -0.866673   -0.106987
C       0.586710   -0.673428    1.226537
C       1.320469    0.154580    2.356400
O       2.172380    0.953255    1.909380
O       0.924734   -0.105212    3.494444
H       1.063882    1.887638    0.354392
H       0.250678    1.830728   -1.251359
H      -0.698497    2.056504    0.246258
H       1.172546   -1.794712   -0.664064
H       2.250127   -0.381445   -0.166788
H      -0.055139   -1.472572    1.594484
