18

C      -0.021727    1.522952    0.000918
C      -0.000677    0.010354    0.035831
C      -1.070294   -0.644283   -0.832554
N      -0.982642   -2.044581   -1.175848
C      -0.423421   -2.981319   -0.551765
O       0.219800   -3.080420    0.640299
C       0.116314   -2.067350    1.631314
C       0.558728   -0.683677    1.199488
O       1.314979   -0.573828   -0.004653
H       0.750028    1.935578    0.654970
H       0.162831    1.884885   -1.016068
H      -0.995257    1.908712    0.322822
H      -2.049288   -0.447729   -0.370016
H      -1.094721   -0.097322   -1.784618
H      -0.405876   -3.972379   -1.006850
H      -0.913336   -2.020900    2.014876
H       0.756001   -2.421699    2.444085
H       0.925440   -0.074012    2.028763
