14

C       0.459667    1.273504   -0.513188
C       0.524182   -0.106843   -1.113214
O       1.549924   -0.688993   -1.379147
C      -0.842379   -0.732753   -1.480999
O      -1.691318   -0.034862   -1.989192
C      -1.082508   -2.184993   -1.210984
C      -0.039663   -3.221962   -1.384331
O      -0.391465   -2.748847   -0.093002
H      -0.185897    1.910828   -1.123520
H       0.000950    1.217263    0.481584
H       1.463322    1.691392   -0.431930
H      -2.129148   -2.466954   -1.314984
H      -0.374878   -4.231384   -1.618403
H       0.944600   -2.929688   -1.733792
