22

C       0.018157    1.132032   -1.080494
C      -0.151767   -0.072068   -0.163066
O       0.929685   -0.995231   -0.299109
C       0.782041   -1.960913   -1.232823
N       1.743757   -2.737124   -1.474643
C       1.626114   -3.799102   -2.455204
C       0.450662   -3.800050   -3.445951
C       0.622751   -4.882031   -4.513449
O      -0.815485   -3.926487   -2.792151
H       0.977764    1.621841   -0.893562
H      -0.014129    0.832165   -2.132668
H      -0.783239    1.857656   -0.907151
H      -0.143687    0.235376    0.886517
H      -1.106373   -0.580263   -0.354598
H      -0.212655   -1.999901   -1.689568
H       2.556119   -3.802305   -3.039623
H       1.627822   -4.762222   -1.917862
H       0.403806   -2.819197   -3.935847
H       0.713572   -5.873956   -4.053464
H      -0.245499   -4.893509   -5.177264
H       1.520344   -4.709504   -5.115577
H      -0.793892   -4.736252   -2.269691
