19

N      -0.028851    1.487513    0.084051
C       0.011224    0.026273   -0.048810
C      -1.351689   -0.511982    0.100277
N      -2.416641   -0.953958    0.172339
C       0.627175   -0.500345   -1.340962
C       2.074518   -0.216496   -1.850298
C       1.411383   -1.125615   -2.925119
C       0.848392   -1.986382   -1.758386
C       0.139064   -0.238914   -2.799579
H       0.920419    1.844397    0.020485
H      -0.542449    1.885034   -0.698180
H       0.601078   -0.359901    0.793675
H       2.297977    0.811624   -2.149485
H       2.892345   -0.654432   -1.270729
H       1.868830   -1.485844   -3.845742
H       1.575233   -2.554512   -1.171184
H      -0.050871   -2.571608   -1.963961
H      -0.811625   -0.696301   -3.083818
H       0.220861    0.787167   -3.169738
