18

O      -0.585122    0.951498    0.805590
C       0.048668    1.083421   -0.209915
C       1.400552    1.749510   -0.312247
C       1.343145    2.991981   -1.212616
C       0.600429    4.276971   -0.699474
C       1.878246    5.088717   -0.947098
C       3.003503    4.535668   -0.123363
C       2.620405    3.825121   -1.393623
H      -0.355442    0.718876   -1.185071
H       1.745654    1.994946    0.695595
H       2.101458    1.026661   -0.754414
H       0.942754    2.706080   -2.191122
H      -0.236515    4.558635   -1.341602
H       0.249358    4.250940    0.337588
H       1.915684    6.081570   -1.377652
H       3.936918    5.086865   -0.177153
H       2.808552    4.096017    0.852050
H       3.329111    3.697604   -2.203669
