16

C       0.108730    1.369696   -0.194978
O      -0.195371    0.000352    0.078078
C       0.537587   -0.521651    1.101990
C       2.003684   -0.968277    0.976338
N       3.080008   -0.459538    1.777468
C       0.953000   -1.952163    1.403071
O       0.690047   -1.754859    2.822360
C       0.170679   -0.482305    2.572832
O      -0.376826    0.238116    3.339214
H       1.165965    1.493420   -0.460976
H      -0.518322    1.662707   -1.038488
H      -0.121441    2.002971    0.669350
H       2.261364   -1.056419   -0.077794
H       2.837473   -0.519864    2.762841
H       3.902577   -1.043059    1.650775
H       0.645552   -2.893979    0.969662
