20

C      -0.276273    1.440344    0.069482
N      -0.143139   -0.007378    0.074918
C       0.663644   -0.562819    0.869900
C       0.735919   -2.075276    0.942796
O       2.015202   -2.568102    1.295570
C       2.485976   -1.963555    2.491984
C       3.802754   -2.623514    2.867551
C       2.633400   -0.469269    2.243384
O       1.414220    0.128598    1.780954
H       0.581487    1.968814    0.499949
H      -0.428197    1.775717   -0.961087
H      -1.171507    1.728597    0.634890
H      -0.014412   -2.416788    1.677613
H       0.473292   -2.488238   -0.030901
H       1.743158   -2.117774    3.294605
H       4.545116   -2.475341    2.077548
H       4.194685   -2.207775    3.800538
H       3.655685   -3.698050    3.000204
H       2.897732    0.066311    3.159364
H       3.419981   -0.301912    1.495313
