21

C      -0.044273    1.539251    0.058754
C       0.014108    0.038940    0.015359
C      -0.896052   -0.843303    0.828492
C       0.595521   -0.958741    1.024199
C       1.269321   -1.755047   -0.109789
C       0.706646   -3.114617   -0.533160
O      -0.432693   -2.836670   -1.350497
C      -0.189170   -1.623819   -2.066674
C       0.666613   -0.750513   -1.146275
H       0.924180    1.986994   -0.194951
H      -0.784158    1.931502   -0.650506
H      -0.326098    1.894873    1.055434
H      -1.406053   -0.321923    1.633923
H      -1.471382   -1.646092    0.382105
H       1.055406   -0.758479    1.985546
H       2.358408   -1.748839   -0.044869
H       1.459022   -3.680627   -1.106717
H       0.365139   -3.737169    0.299120
H       0.348121   -1.835755   -3.005635
H      -1.163616   -1.192776   -2.315912
H       1.402940   -0.154467   -1.689168
