13

N      -0.124180    1.305570    0.005419
C      -0.018023    0.047313   -0.012310
N       1.122818   -0.765079    0.025860
C       0.847030   -2.127020   -0.018667
O       1.652091   -3.020686   -0.074323
C      -0.656388   -2.194134   -0.025689
C      -1.355521   -1.594392    1.145261
N      -1.166715   -0.809841   -0.088915
H       0.785567    1.760852    0.071477
H       2.065954   -0.411429    0.076828
H      -1.133115   -2.947909   -0.641116
H      -2.383373   -1.878467    1.343668
H      -0.767715   -1.323927    2.017967
