16

N       0.983627   -0.710036    0.676967
C       0.465476    0.286980    0.407484
C      -0.214749    1.540770    0.018785
C      -0.885672    2.258636    1.214843
C       0.203057    3.216339    1.682620
O       1.232291    2.577869    2.465031
C       2.229378    2.805348    1.438077
C       1.158603    3.359158    0.476047
O       0.698899    2.480161   -0.539877
H      -0.933658    1.287866   -0.766068
H      -1.753050    2.820049    0.855968
H      -1.202180    1.575206    2.004065
H      -0.181821    4.120326    2.163889
H       2.974870    3.543634    1.757239
H       2.725228    1.882892    1.122936
H       1.341190    4.330716    0.017182
