19

N      -0.005393    0.275691    1.073935
C      -0.068115    0.235490   -0.286987
O       0.628563    0.917376   -1.012522
C      -1.136466   -0.730364   -0.821923
C      -0.951805   -2.151344   -0.358758
C      -0.032831   -3.213765   -0.989474
C      -1.070524   -4.312167   -0.576377
C      -1.940622   -3.212209    0.045096
N      -1.188348   -2.466165    1.054569
H       0.701539    0.848778    1.503706
H      -0.530056   -0.385727    1.626575
H      -2.117763   -0.372900   -0.489540
H      -1.102563   -0.672743   -1.911670
H       0.054292   -3.115099   -2.073825
H       0.974140   -3.281886   -0.564895
H      -1.533520   -4.789940   -1.442540
H      -0.731225   -5.092524    0.113029
H      -3.023424   -3.182401    0.095425
H      -0.438147   -3.020515    1.465218
