18

C       1.436447   -0.220454    1.227197
C       0.251224   -0.477476    0.288543
C       0.714273   -0.815525   -1.114395
C       0.944220   -2.238872   -1.567271
C       0.637095   -3.317426   -0.660631
N       0.385724   -4.194104    0.052140
N      -0.126861   -1.410303   -2.138854
C      -1.521374   -1.742162   -1.862721
H       2.048644   -1.120180    1.342720
H       2.080619    0.578442    0.844168
H       1.088254    0.078184    2.219745
H      -0.370077   -1.278719    0.697149
H      -0.380801    0.418108    0.235772
H       1.417108   -0.088926   -1.524125
H       1.760201   -2.466358   -2.248547
H      -1.708411   -2.187393   -0.877478
H      -2.114414   -0.827804   -1.954205
H      -1.863616   -2.448172   -2.624488
