17

C       0.002517    1.502567   -0.127119
C       1.377226    2.076554    0.108479
C       2.475753    1.365755    0.358890
C       2.538554   -0.138365    0.450926
C       1.193164   -0.762160    0.226293
C       0.804331   -2.064546    0.223258
O      -0.528850   -2.165593   -0.027644
C      -0.997592   -0.898613   -0.187555
C       0.007539    0.004996   -0.043986
H      -0.699009    1.933526    0.601991
H      -0.366837    1.839780   -1.106607
H       1.448324    3.160591    0.064429
H       3.417724    1.886295    0.513360
H       3.271828   -0.514602   -0.277285
H       2.944357   -0.423893    1.432383
H       1.322607   -2.997524    0.374424
H      -2.051986   -0.813995   -0.394932
