23

C       0.081259    1.623633   -0.044698
C       0.065334    0.093127   -0.043473
C       0.659920   -0.513316    1.231402
C       0.710090   -2.046596    1.208692
O       1.454737   -2.534166    0.100958
C       1.243242   -2.610849    2.545119
C       1.258776   -4.067109    2.604523
C       1.258906   -5.270105    2.647155
C       1.261804   -6.725274    2.693505
H       1.103568    2.010179    0.037293
H      -0.351870    2.025307   -0.966087
H      -0.491636    2.030091    0.796599
H      -0.966156   -0.264213   -0.162025
H       0.619844   -0.291965   -0.905618
H       1.681053   -0.129415    1.382251
H       0.080664   -0.186369    2.105567
H      -0.301784   -2.438602    1.049944
H       2.377408   -2.288872    0.234617
H       2.257854   -2.216264    2.708868
H       0.632508   -2.208295    3.364088
H       2.209310   -7.110679    3.086664
H       0.459168   -7.107731    3.334052
H       1.120373   -7.153991    1.695097
