17

O      -0.616010    1.311767   -1.990897
C      -0.234245    1.428132   -0.846171
C       1.254392    1.770882   -0.580916
C       1.641684    1.897151    0.817163
N       1.893032    1.982453    1.942739
N      -1.019823    1.290770    0.251340
C      -2.400781    0.914206    0.154314
C      -3.358707    1.499776    1.155248
C      -3.410037    1.938758   -0.286754
H       1.853563    0.992818   -1.063820
H       1.466601    2.703878   -1.111981
H      -0.591967    1.321022    1.164697
H      -2.565618   -0.110544   -0.166816
H      -4.142911    0.857827    1.539061
H      -2.958289    2.201688    1.878973
H      -3.036498    2.926712   -0.526676
H      -4.229171    1.599580   -0.909590
