16

C      -0.543566    1.371833    0.100826
C       0.131871    0.011016   -0.145095
O       1.057601    0.103580   -1.197495
C       0.794051   -0.500211    1.120240
C       0.088985   -0.887324    2.269532
N       0.702315   -1.319568    3.362281
N       2.036928   -1.380466    3.365142
C       2.674203   -1.009623    2.260783
N       2.118184   -0.571833    1.124472
H       0.197325    2.108898    0.424145
H      -0.990103    1.717082   -0.834535
H      -1.329832    1.304217    0.859361
H      -0.647774   -0.715293   -0.425264
H       1.934679   -0.022455   -0.803740
H      -0.995836   -0.858114    2.312439
H       3.757885   -1.074987    2.292284
