21

C      -0.143049    1.440447    0.152969
O       0.304959    0.135696   -0.137573
C       0.759266   -0.558219    0.994465
C      -0.296252   -1.168173    1.989479
C       0.343436   -2.572320    1.770536
C      -0.238376   -3.502776    0.679630
C      -0.769755   -2.745617   -0.504325
C       0.717062   -2.890897   -0.361030
C       1.329539   -1.977240    0.722521
H       0.656082    2.050905    0.603113
H      -0.449042    1.898460   -0.790831
H      -1.001992    1.440374    0.840827
H       1.491305    0.060765    1.537627
H      -0.212821   -0.789004    3.010971
H      -1.336235   -1.074044    1.667152
H       0.719127   -3.086701    2.654326
H      -0.494860   -4.543322    0.842081
H      -1.203217   -3.377438   -1.274219
H      -1.247360   -1.777688   -0.414230
H       1.306638   -3.387622   -1.122240
H       2.408136   -2.092593    0.832513
