19

C      -0.039783    1.528282    0.013722
C       0.036456    0.031838    0.000459
C       0.049219   -0.789564   -1.101784
N      -0.015779   -0.685636   -2.512560
C       0.310076   -2.047849   -2.997850
C       0.036644   -3.019282   -1.812250
N       0.151956   -2.097154   -0.700651
C       0.181309   -2.155195    0.672019
C       0.113494   -0.856409    1.126250
H       0.688542    1.961466    0.708522
H       0.169365    1.935680   -0.980316
H      -1.028004    1.896739    0.318750
H      -0.939380   -0.399798   -2.822987
H      -0.265233   -2.294774   -3.891970
H       1.373946   -2.083718   -3.255656
H      -0.965220   -3.469068   -1.854895
H       0.774169   -3.825080   -1.763069
H       0.289785   -3.089094    1.198904
H       0.150012   -0.554544    2.163282
