21

C      -0.042462    1.463311   -0.058480
C      -0.065101   -0.055324   -0.000468
C       1.020562   -0.715273   -0.861341
C       0.608615   -2.014931   -1.506009
C      -0.455859   -2.704591   -1.100105
C      -1.270183   -2.211760    0.062435
C      -0.485089   -2.122500    1.428402
C      -0.533590   -0.598039    1.338820
C      -1.430461   -0.673316    0.103122
H       0.922461    1.856339    0.283524
H      -0.202196    1.821084   -1.082210
H      -0.821875    1.900983    0.573338
H       1.315620   -0.012712   -1.652563
H       1.933133   -0.865339   -0.264564
H       1.222483   -2.369415   -2.330037
H      -0.727762   -3.642158   -1.576704
H      -2.212444   -2.751667    0.162367
H      -1.085332   -2.498684    2.261259
H       0.498558   -2.601827    1.456614
H      -0.611318    0.068079    2.191106
H      -2.339645   -0.133708   -0.136147
