23

C      -0.111902    1.508327    0.033659
C       0.000995   -0.023984    0.008550
C       0.687943   -0.497399   -1.284952
C       0.916448   -2.010684   -1.289715
C       1.882566   -2.436900   -0.173901
C       1.627368   -1.711430    1.134088
O       2.140325   -0.372554    1.239867
C       0.713774   -0.555375    1.252213
C       0.056247   -0.275647    2.587176
H       0.880497    1.962542    0.122274
H      -0.568435    1.872623   -0.892320
H      -0.724782    1.866647    0.865467
H      -1.014953   -0.446821    0.024469
H       0.068804   -0.202968   -2.139841
H       1.647599    0.022681   -1.391609
H      -0.048325   -2.516593   -1.148890
H       1.300336   -2.340447   -2.261067
H       1.813114   -3.517139   -0.003900
H       2.919140   -2.234230   -0.470853
H       1.796721   -2.301399    2.036836
H      -0.001135    0.799065    2.783803
H      -0.963121   -0.676827    2.610243
H       0.627686   -0.733897    3.398236
