12

O      -0.059183    1.418769    0.010210
N       0.072006    0.046908    0.001439
C      -1.057340   -0.562844    0.008994
C      -1.039564   -2.081483    0.000463
C       0.297615   -2.670115   -0.015277
N       1.329647   -3.187145   -0.027761
C      -2.334568    0.061762    0.024731
C      -3.441324    0.534605    0.037998
H       0.858231    1.717115    0.003023
H      -1.580847   -2.453316    0.879170
H      -1.597203   -2.443671   -0.872028
H      -4.408866    0.973968    0.049737
