25

C       0.110744    1.611256    0.275427
C       0.050720    0.083223    0.171181
C      -1.364013   -0.471373   -0.083717
C      -1.902809   -0.115115   -1.477135
C      -1.449103   -1.986909    0.181941
C      -0.563248   -2.841429   -0.717347
C      -1.423730   -2.386612    1.684002
C      -2.874596   -2.843301    1.451659
O      -2.840609   -2.428778    0.073555
H       1.128947    1.949442    0.492065
H      -0.205149    2.095003   -0.653841
H      -0.539218    1.977958    1.077869
H       0.723275   -0.250230   -0.629333
H       0.446128   -0.348462    1.100069
H      -2.038576   -0.011917    0.653350
H      -1.212769   -0.424479   -2.270002
H      -2.863952   -0.607115   -1.646091
H      -2.054216    0.963336   -1.577698
H       0.495284   -2.601281   -0.575003
H      -0.707254   -3.900730   -0.486277
H      -0.812771   -2.692468   -1.771657
H      -0.715979   -3.175546    1.944814
H      -1.303472   -1.554103    2.379818
H      -3.053944   -3.921327    1.550836
H      -3.643195   -2.308306    2.022983
