17

N       0.086258    1.339045   -0.014827
C      -0.007975   -0.016343    0.009470
C      -1.128251   -0.803916    0.024173
C      -2.498533   -0.363015    0.031520
O      -3.471915   -1.096017    0.046878
C      -0.725293   -2.239840    0.001703
N       0.042859   -2.610773   -1.222917
C       0.757909   -2.279980    0.026905
C       1.265168   -0.844114    0.064154
H       0.973847    1.757262   -0.235416
H      -0.722220    1.892450   -0.245523
H      -2.641683    0.746079    0.039559
H      -1.353660   -2.986215    0.471814
H       0.028660   -3.624725   -1.324055
H       1.314044   -3.053570    0.544091
H       1.926765   -0.615102   -0.779986
H       1.818735   -0.628011    0.987253
