14

N      -0.033846    1.488419    0.123966
C       0.008437    0.034876    0.048025
C      -1.404850   -0.648697   -0.049636
N      -0.981425   -1.209976   -1.333475
C       0.251740   -0.616445   -1.380983
O       1.121776   -0.574534   -2.205198
C       0.876878   -0.516813    1.071412
C       1.614886   -0.984635    1.896246
H       0.915375    1.847789    0.163478
H      -0.450625    1.863939   -0.724502
H      -1.620817   -1.388966    0.723976
H      -2.219631    0.078732   -0.117440
H      -1.476462   -1.762512   -2.017151
H       2.267551   -1.395588    2.626503
