19

C      -0.140692    1.548571    0.118306
C       0.044326    0.059397   -0.024399
C      -0.864593   -0.919863    0.712579
C       0.587958   -0.870039    1.057427
C       1.469511   -1.930912    0.414146
O       1.221649   -3.183780    1.034237
C       1.127773   -1.881968   -1.092264
C       0.572355   -0.470112   -1.324347
O       0.625851    0.149454   -2.358397
H       0.796263    2.082259   -0.069493
H      -0.875674    1.914204   -0.604937
H      -0.488719    1.807597    1.122474
H      -1.558079   -0.464336    1.410980
H      -1.260515   -1.786568    0.195877
H       0.886095   -0.471999    2.020658
H       2.521828   -1.640858    0.554694
H       1.844608   -3.823551    0.674776
H       1.975234   -2.070215   -1.754270
H       0.355128   -2.625258   -1.320918
