19

C      -0.146072    1.430165   -0.021540
C       0.013439   -0.060101   -0.047454
C       0.981405   -0.883991   -0.902944
C       0.137421   -2.119713   -0.477383
O      -0.040948   -3.220400   -1.300170
C       0.418570   -2.261706    1.047363
C      -0.330858   -0.940072    1.200612
C      -1.049562   -1.110644   -0.119169
O      -2.349415   -0.990997   -0.528524
H       0.730054    1.920186    0.418840
H      -0.281083    1.830939   -1.032355
H      -1.022672    1.719721    0.567237
H       0.848197   -0.664707   -1.966547
H       2.048628   -0.885078   -0.646581
H       0.814836   -3.641503   -1.440287
H      -0.140823   -3.098947    1.475287
H       1.468071   -2.311746    1.361168
H      -0.690731   -0.467453    2.105743
H      -2.861133   -1.713557   -0.146700
