20

C       0.141989    1.504360    0.007595
C      -0.050245   -0.010055    0.002085
C      -1.512045   -0.439322    0.013908
O      -2.416893    0.366214    0.027100
C      -1.774975   -1.937172    0.008378
C      -3.255312   -2.286892    0.020571
O      -3.365799   -3.694361    0.014161
C      -4.702263   -4.134397    0.024503
H       1.205398    1.759037   -0.000824
H      -0.330963    1.960619   -0.865657
H      -0.315062    1.952158    0.893591
H       0.426644   -0.468573   -0.875309
H       0.442983   -0.476904    0.865968
H      -1.291928   -2.382449   -0.871126
H      -1.275407   -2.391694    0.873823
H      -3.741509   -1.857831    0.910514
H      -3.758266   -1.848482   -0.855399
H      -5.239630   -3.790521    0.922704
H      -5.256536   -3.781065   -0.859644
H      -4.688073   -5.227131    0.018571
