13

O       0.101563   -0.136579    0.240748
C       0.084506    0.958087   -0.249356
C       1.239038    1.952474   -0.112515
N       1.277594    2.942742   -1.181420
C       0.885141    4.265587   -0.905125
O       0.840869    5.170081   -1.686401
C       1.728635    2.516021   -2.444934
O       1.813788    3.186424   -3.432243
H      -0.783514    1.340204   -0.832991
H       1.107252    2.475934    0.841433
H       2.178813    1.397680   -0.040523
H       0.615250    4.370797    0.165383
H       2.010230    1.444013   -2.409984
