19

C      -0.280931    1.481407   -0.099719
C       0.030731   -0.016336    0.028743
C       0.904690   -0.287391    1.258727
O      -1.174673   -0.761578    0.244083
C       0.713735   -0.523772   -1.220275
C       0.410393   -1.651618   -1.939331
N       1.325182   -1.684422   -2.971083
C       2.128543   -0.593879   -2.832567
N       1.788695    0.127499   -1.789965
H       0.634132    2.049743   -0.281161
H      -0.953932    1.663150   -0.945921
H      -0.761763    1.843909    0.813443
H       0.420163    0.099945    2.159929
H       1.055927   -1.363430    1.378539
H       1.879339    0.192045    1.139970
H      -1.786384   -0.521508   -0.460735
H      -0.334337   -2.416094   -1.803694
H       1.383618   -2.384062   -3.691549
H       2.934530   -0.379000   -3.518641
