17

C       0.009255    1.562111    0.005484
O       1.419168    1.818335   -0.077268
C       2.143493    0.759654    0.568299
C       1.121364   -0.316141    0.785058
C       0.874004   -1.255866    1.698942
C      -0.579805   -1.613294    1.651364
O      -1.417767   -0.481592    2.005820
C      -1.209468   -0.756388    0.622987
C      -0.097012    0.033508   -0.049646
H      -0.410730    1.936864    0.949553
H      -0.460204    2.083980   -0.831656
H       2.965042    0.457365   -0.094324
H       2.582170    1.109588    1.512978
H       1.552493   -1.613996    2.463420
H      -0.969545   -2.578513    1.959345
H      -2.093214   -1.055696    0.066532
H       0.019240   -0.302592   -1.088655
