15

O       0.223828    1.402084   -0.021330
C       0.057416   -0.008272   -0.036882
C      -1.350108   -0.582796   -0.005573
C      -2.122383   -0.175450   -1.239091
C      -1.119616   -1.276628   -1.361383
C       0.292283   -0.678539   -1.441381
O       0.550148    0.230150   -2.479185
H      -0.644887    1.800904   -0.138316
H       0.711768   -0.422465    0.733819
H      -1.852161   -0.962322    0.876069
H      -3.163733   -0.478567   -1.239630
H      -1.936122    0.767790   -1.745707
H      -1.393153   -2.283433   -1.649872
H       1.070194   -1.450379   -1.405977
H       0.719608    1.074936   -2.035950
