19

C      -0.228834    1.494202   -0.022155
N      -0.025376    0.049578   -0.034465
C       0.134747   -0.639892    1.152840
O       0.120368   -0.139397    2.250636
C       0.006670   -0.630523   -1.240122
N      -0.136112   -0.044478   -2.353027
C      -0.102134   -0.844852   -3.565693
C      -1.321678   -0.489834   -4.422492
O      -1.357255    0.890191   -4.714854
H       0.549299    1.983893   -0.611988
H      -1.198967    1.739985   -0.461398
H      -0.188246    1.820483    1.015595
H       0.281150   -1.722428    0.982490
H       0.170773   -1.709781   -1.128365
H       0.801159   -0.577773   -4.128849
H      -0.075016   -1.929030   -3.366100
H      -1.275187   -1.024601   -5.377177
H      -2.235905   -0.817359   -3.899244
H      -1.173034    1.335437   -3.877959
