19

C       0.038597    1.571223    0.121449
C       1.344238    0.833546   -0.062170
C       0.020310    0.065207    0.028618
C       0.099558   -0.527785   -1.369987
C      -0.678196   -1.260465   -2.455450
C       0.208904   -0.472824   -3.491145
C       0.610512    0.549191   -2.367024
C       1.834914    0.353121   -1.471620
O       1.498222   -1.065290   -1.380215
H      -0.123533    1.983746    1.113380
H      -0.388351    2.179245   -0.666913
H       2.060483    0.810833    0.750153
H      -0.229917   -0.547035    0.886341
H      -0.617093   -2.350881   -2.449021
H      -1.726217   -0.949703   -2.496371
H       1.035034   -1.061049   -3.886713
H      -0.342177   -0.015134   -4.314924
H       0.156489    1.532831   -2.475135
H       2.876094    0.553256   -1.733722
