17

C      -0.269754    0.929058    0.326006
C       0.493407    0.229122   -0.772140
O       1.704444    0.271762   -0.857786
C      -0.329671   -0.613699   -1.756039
N      -0.468832   -1.974252   -1.241077
C       0.561533   -2.744517   -1.319962
N       1.807434   -2.487791   -1.796452
C       0.339429   -4.159543   -0.866674
O       1.207357   -4.997926   -0.884686
H       0.416384    1.392423    1.035439
H      -0.926533    1.692444   -0.107636
H      -0.917895    0.207322    0.835208
H      -1.331501   -0.191043   -1.875448
H       0.187199   -0.592751   -2.726488
H       2.153741   -1.537592   -1.767627
H       2.470644   -3.240969   -1.682245
H      -0.693073   -4.352288   -0.521589
