19

C      -0.760141    1.724987   -0.920209
N      -0.789551    0.312357   -0.620415
C       0.231971   -0.439230   -0.697088
C       1.666646   -0.090160   -1.070028
O       2.107787   -0.741422   -2.236609
N      -0.039150   -1.787261   -0.353403
C       0.756367   -2.901342   -0.328921
C       0.038594   -4.153557    0.145426
O       1.933371   -2.923060   -0.660928
H       0.140651    2.089911   -1.429005
H      -1.624211    1.964388   -1.549587
H      -0.881884    2.296463    0.008541
H       1.731777    0.983494   -1.250296
H       2.306705   -0.318034   -0.204773
H       2.287612   -1.654123   -1.954111
H      -1.010290   -1.902094   -0.094675
H      -0.675532   -4.487364   -0.615241
H       0.776693   -4.938642    0.304086
H      -0.516387   -3.975228    1.071178
