12

N      -0.126727    1.361579    0.010554
C       0.106821    0.028044    0.002011
O       1.178451   -0.516698   -0.011863
N      -1.112873   -0.733154    0.009324
N      -2.338153   -0.113101    0.021835
N      -3.243904   -0.996883    0.026243
N      -2.648569   -2.208832    0.016750
C      -1.256889   -2.135801    0.005099
O      -0.452361   -3.025250   -0.004379
H       0.674243    1.967837    0.001038
H      -1.059505    1.736939    0.016934
H      -3.201794   -3.049613    0.019209
