17

C       0.023272    1.502323   -0.097757
N       0.010739    0.043897    0.053236
C      -1.142848   -0.591645    0.815079
C      -0.201827   -1.805811    1.014503
C       0.707878   -0.570588    1.277153
C       2.185866   -0.496110    1.502791
C      -0.486747    0.027208    2.073790
O      -0.715306    0.769240    2.978928
H       1.011167    1.803761   -0.458802
H      -0.709219    1.774307   -0.863666
H      -0.203040    2.067831    0.818776
H      -2.163810   -0.565239    0.439623
H      -0.404372   -2.472642    1.853982
H       0.034721   -2.327013    0.085467
H       2.733476   -0.938805    0.665212
H       2.512088    0.541959    1.622052
H       2.454871   -1.036348    2.415543
