24

C       1.704158    2.214351   -0.568685
C       1.986416    0.818958   -0.012017
N       1.673309   -0.196466   -1.012789
C       1.785549   -1.619384   -0.688849
C       2.210398   -2.129512    0.672855
C       0.445583   -1.007167   -0.949965
C      -0.624510   -0.887406    0.117286
C      -1.721957    0.105150   -0.256131
O      -2.705700    0.060687    0.766340
H       2.271485    2.379526   -1.488726
H       0.642454    2.337828   -0.805180
H       1.979532    2.984916    0.158722
H       3.055502    0.730201    0.216822
H       1.454789    0.690962    0.943029
H       2.226056   -2.196111   -1.503755
H       1.733448   -1.602044    1.500551
H       1.961655   -3.192068    0.767582
H       3.295087   -2.036199    0.797383
H       0.020398   -1.177116   -1.941050
H      -1.094385   -1.869284    0.257641
H      -0.216726   -0.602391    1.090119
H      -1.298410    1.116359   -0.357975
H      -2.149305   -0.167817   -1.234906
H      -3.398547    0.689606    0.545193
