17

C       0.006867   -1.160207    0.027314
C       0.008667    0.042806    0.002061
C      -0.013964    1.476575   -0.013541
C       0.473428    2.200618   -1.265606
C       1.318505    2.229086   -0.027773
O       1.431773    3.437285    0.668359
C       0.420206    3.637959    1.626528
O      -0.861223    3.483428    1.081984
C      -1.130354    2.115761    0.813619
H       0.010078   -2.221830    0.044139
H       0.789681    1.591845   -2.103965
H      -0.033409    3.127109   -1.511107
H       2.230261    1.640265    0.001147
H       0.551911    2.942508    2.474671
H       0.515874    4.672105    1.961243
H      -2.085192    2.081049    0.282474
H      -1.235397    1.558856    1.756923
