22

C      -0.111428    1.624742   -0.022418
C       0.064778    0.110897    0.009102
C       1.024733   -0.636868   -0.982318
C       1.565275   -1.495292    0.209839
C       1.440149   -2.999376    0.124146
C       2.819407   -0.960653    0.932747
C       2.924085    0.504448    0.946825
N       1.988810   -0.121461    1.905344
C       0.742233   -0.631309    1.197789
H       0.826775    2.171423    0.095824
H      -0.561614    1.938971   -0.970750
H      -0.778375    1.949509    0.783641
H      -0.930767   -0.338469   -0.090571
H       0.507884   -1.218272   -1.750676
H       1.772430   -0.013590   -1.480017
H       2.142971   -3.413372   -0.609701
H       1.652970   -3.470138    1.090532
H       0.431011   -3.297595   -0.180041
H       3.618955   -1.602648    1.294696
H       3.782416    0.932982    1.457659
H       2.569302    1.101008    0.116279
H       0.081073   -1.067845    1.949091
