21

C       0.050143    1.550514   -0.066339
C       1.613928    1.395622    0.009877
C       1.328339    0.048198    0.635013
C       1.622809   -0.612100    1.751084
C       0.511455   -1.497677    2.294989
C      -0.746339   -0.571210    2.457867
C      -1.010501   -0.817913    0.941203
C      -0.286612   -2.190341    1.148584
C      -0.067093   -0.008549    0.046866
H      -0.336768    2.055311    0.822272
H      -0.364050    2.018387   -0.962787
H       2.049231    1.329242   -0.993601
H       2.178809    2.125413    0.594898
H       2.502490   -0.411563    2.356203
H       0.823367   -2.106358    3.144913
H      -1.524899   -1.045901    3.062105
H      -0.578998    0.449817    2.810744
H      -2.047820   -0.817193    0.596592
H       0.282637   -2.597419    0.308468
H      -0.965606   -2.953537    1.538267
H      -0.075094   -0.431535   -0.966906
