15

C      -0.073569    1.620940    0.011751
C      -0.178025    0.146163    0.356194
C      -1.297778   -0.668124   -0.127186
O      -0.001367   -0.769028   -0.720527
C       1.338337    2.089202   -0.106605
N       1.922750    2.657978   -1.119159
C       3.192849    2.855268   -0.634642
N       3.397538    2.444699    0.585616
O       2.146851    1.926830    0.950789
H      -0.570084    1.821394   -0.939422
H      -0.576484    2.204619    0.793318
H       0.316879   -0.147746    1.281770
H      -1.622057   -1.535377    0.445355
H      -2.062972   -0.210574   -0.753117
H       3.983250    3.316517   -1.208711
