14

O       0.039923    0.504833   -1.208815
C       0.202777    1.600839   -0.766423
O       0.837267    1.822633    0.404000
C       1.025188    3.195051    0.799461
C       2.337560    3.732247    0.333054
N       2.413272    4.579505   -0.698826
N       3.712409    4.799898   -0.815094
N       4.503760    4.175278    0.047063
C       3.644353    3.483383    0.792967
H      -0.150410    2.532482   -1.248830
H       0.215865    3.819782    0.407683
H       0.964467    3.187972    1.889575
H       4.082990    5.419079   -1.518600
H       3.986972    2.854501    1.599002
