17

C      -0.062225    1.531032    0.036137
C      -0.027015    0.027502    0.057000
C       1.088593   -0.811719   -0.687068
N       2.065823   -0.444464    0.396244
C       0.790573   -0.794624    1.121083
C       0.492515   -1.983780    0.167458
N      -0.949927   -2.062292    0.011659
C      -1.330262   -0.737380   -0.186623
O      -2.412642   -0.313554   -0.508483
H       0.941682    1.936806    0.177565
H      -0.465148    1.890522   -0.915347
H      -0.714456    1.911608    0.828320
H       1.348084   -0.782310   -1.747885
H       2.748312   -1.201014    0.515041
H       0.693629   -0.751820    2.207760
H       1.020309   -2.930671    0.274853
H      -1.409306   -2.799562   -0.501984
