17

C      -0.356479    1.045988   -0.233031
C       1.071389    1.113963    0.274272
C       0.427263   -0.209830    0.037547
O       0.130166   -0.959071    1.184934
C      -0.891587   -1.841025    1.050138
C      -1.730709   -2.065075   -0.002429
O      -2.606677   -3.066324    0.321600
C      -2.311199   -3.464763    1.581187
C      -1.269572   -2.755838    2.086404
H      -1.143176    1.290684    0.471044
H      -0.562138    1.318087   -1.262500
H       1.856812    1.432545   -0.401307
H       1.213994    1.402154    1.309341
H       0.749502   -0.820152   -0.804472
H      -1.841446   -1.629535   -0.978405
H      -2.924240   -4.256773    1.978848
H      -0.813509   -2.853149    3.058133
