23

C      -0.081541    1.553174   -0.016704
C       0.021765    0.022976    0.043794
C       0.894257   -0.410359    1.231306
C      -1.384043   -0.602967    0.078429
C      -1.415101   -2.125095   -0.060467
N      -2.794156   -2.599645   -0.176844
C      -2.882153   -4.052003   -0.246114
C      -4.277205   -4.496196   -0.316475
N      -5.376416   -4.849239   -0.348247
H       0.909241    2.014066   -0.084256
H      -0.665190    1.880590   -0.883252
H      -0.569873    1.948340    0.882193
H       0.513564   -0.316517   -0.879595
H       1.877006    0.070435    1.187700
H       0.428275   -0.123365    2.181988
H       1.059522   -1.491601    1.254227
H      -1.880900   -0.314483    1.016958
H      -1.989649   -0.182213   -0.732759
H      -0.882900   -2.421577   -0.975018
H      -0.880968   -2.602770    0.780682
H      -3.339373   -2.267428    0.612900
H      -2.366394   -4.393531   -1.152707
H      -2.401035   -4.578218    0.599959
