19

C       0.029644    1.528276    0.122091
C       1.353976    0.829953   -0.106160
C       0.049655    0.020128    0.047192
C       0.096533   -0.608629   -1.333433
C      -0.716820   -1.140700   -2.511416
O       0.166632   -0.396214   -3.411584
C       0.566292    0.485392   -2.314175
C       1.881152    0.392792   -1.522230
C       1.599396   -1.128555   -1.396114
H      -0.094521    1.939885    1.119593
H      -0.457081    2.123136   -0.640294
H       2.088553    0.853457    0.690839
H      -0.142804   -0.573882    0.933278
H      -0.693067   -2.216599   -2.711631
H      -1.747013   -0.766561   -2.578187
H       0.089722    1.457307   -2.446415
H       2.841046    0.812347   -1.829268
H       1.975168   -1.627152   -0.500002
H       1.823699   -1.702549   -2.294754
