16

C      -0.063567   -1.259691   -0.140546
C      -0.028772   -0.060414   -0.063633
C       0.006268    1.397148    0.039899
C      -0.604859    1.928751    1.336428
C       0.209302    2.780465    1.959741
C       1.517864    2.920059    1.257779
C       2.341688    1.646734    1.190101
C       1.424039    2.000246    0.053085
H      -0.092108   -2.318539   -0.212331
H      -0.550024    1.807391   -0.816617
H      -1.578227    1.600096    1.679035
H      -0.017126    3.292438    2.888252
H       2.020612    3.879875    1.217029
H       3.405838    1.746354    1.003389
H       2.067720    0.829816    1.849017
H       1.864808    2.269769   -0.898448
