19

O       0.204521    1.394367    0.139888
C       0.039880   -0.005640   -0.010805
C      -1.461669   -0.463815   -0.081738
C      -1.361136   -1.747793   -0.918076
C      -2.120396   -2.244335   -2.179337
C      -1.999208   -1.304608   -3.339349
C      -0.794786   -2.159843   -2.981954
C      -0.165063   -1.486366   -1.796468
C       0.645780   -0.551817   -1.312737
H      -0.155268    1.810469   -0.652027
H       0.527573   -0.426962    0.878500
H      -1.913232   -0.579856    0.906939
H      -2.020276    0.311400   -0.621643
H      -1.179546   -2.618474   -0.274445
H      -2.846036   -3.048463   -2.180045
H      -2.526893   -1.613481   -4.236885
H      -1.957703   -0.228639   -3.194730
H      -0.359970   -2.857830   -3.685542
H       1.557391   -0.141309   -1.730745
