13

O       0.012312   -0.080722    0.002304
C       0.032344    1.133971    0.008704
N      -1.184962    1.821343    0.028588
C      -1.571383    3.150196    0.041306
O      -2.750598    3.441394    0.058609
C      -0.565774    4.264485    0.033822
N       0.708453    4.294429    0.016909
C       1.555119    3.191926   -0.000405
C       1.303466    1.870972   -0.004195
H      -1.977618    1.187017    0.035660
H      -1.090154    5.221247    0.046095
H       2.600515    3.490355   -0.012762
H       2.150804    1.193680   -0.019170
