18

C       0.014226    1.451791   -0.062890
C       0.045121   -0.001377   -0.081963
C       0.054620   -1.206856   -0.099758
C       0.005305   -2.660806   -0.125444
O      -1.027058   -3.297343   -0.271051
N       1.215480   -3.255194    0.022469
C       2.566418   -2.778921    0.327081
C       3.006652   -4.269004    0.444303
C       1.533867   -4.676247    0.141520
H       1.020934    1.875935   -0.139546
H      -0.581157    1.841092   -0.895749
H      -0.435371    1.819319    0.866044
H       3.031834   -2.208737   -0.483877
H       2.633229   -2.193751    1.250638
H       3.728643   -4.586271   -0.308311
H       3.367668   -4.560011    1.430769
H       0.998313   -5.175537    0.955741
H       1.371839   -5.243185   -0.780841
