17

N       0.245314    1.121137    0.338184
C       0.064202   -0.072291    0.008222
O       0.926215   -0.976272   -0.604640
C      -0.118619   -1.991572   -0.678999
C      -0.065764   -2.957912    0.523760
C      -1.025900   -2.008362    1.270541
C      -2.127984   -2.408237    2.173113
N      -0.999660   -1.591862    2.660567
C      -1.095584   -1.039391    0.071275
H       1.193916    1.429130    0.117103
H      -0.246834   -2.368521   -1.692058
H      -0.487447   -3.946644    0.322802
H       0.936755   -3.069369    0.945133
H      -3.081826   -1.888236    2.137582
H      -2.189885   -3.454856    2.463091
H      -0.344150   -2.161072    3.190477
H      -2.069196   -0.703221   -0.278431
