20

O      -0.400178    1.116787   -0.935626
C      -1.058236   -0.095172   -0.712369
C      -1.013846   -0.476497    0.759338
O      -0.496341    0.278374    1.555396
C      -1.576341   -1.826596    1.181655
N      -2.641445   -2.297367    0.328735
C      -4.022518   -1.813651    0.559196
C      -4.540349   -3.226517    0.201032
C      -3.089651   -3.701384    0.455749
H      -0.112339    1.411691   -0.056508
H      -2.112546   -0.049328   -1.026922
H      -0.611832   -0.915814   -1.296471
H      -0.738752   -2.535666    1.108037
H      -1.845811   -1.764669    2.251545
H      -4.211847   -1.554907    1.613776
H      -4.330701   -0.972233   -0.069749
H      -5.320359   -3.646474    0.835546
H      -4.833993   -3.314190   -0.846141
H      -2.633331   -4.393814   -0.259057
H      -2.960948   -4.104116    1.473164
