19

C      -0.051463    1.563846    0.103226
C       0.011335    0.036432   -0.005189
C       0.658960   -0.572751    1.246672
O      -1.316592   -0.520269   -0.034792
C       0.742483   -0.386533   -1.254576
C       1.701172    0.180234   -2.058304
N       2.058446   -0.672936   -3.078887
C       1.323378   -1.746651   -2.901182
N       0.516681   -1.629277   -1.810036
H       0.951110    1.996037    0.171571
H      -0.542404    1.996894   -0.774473
H      -0.613337    1.847482    0.997155
H       0.087958   -0.292511    2.136571
H       0.674138   -1.663544    1.175604
H       1.687609   -0.220425    1.354221
H      -1.791484   -0.093095   -0.757074
H       2.159654    1.152463   -1.959519
H       1.325760   -2.627804   -3.525499
H      -0.183535   -2.272734   -1.478593
