21

C      -0.124805    1.365850   -1.349705
C       0.220160   -0.038718   -0.864173
C      -0.786463   -1.082165   -1.339053
O       1.591040   -0.410837   -1.200287
C       2.030490   -0.523610    0.187130
C       2.447601   -1.948282    0.539092
C       3.109366    0.499704    0.528362
C       0.606300   -0.136618    0.621901
O       0.043193    0.020230    1.663904
H       0.610933    2.097529   -1.006878
H      -0.143242    1.385937   -2.444147
H      -1.110129    1.664462   -0.979299
H      -0.813256   -1.100405   -2.433353
H      -0.519898   -2.081797   -0.987086
H      -1.787647   -0.839701   -0.970180
H       3.354841   -2.216022   -0.012068
H       2.654197   -2.029892    1.610488
H       1.666209   -2.667254    0.280826
H       2.795682    1.512452    0.263513
H       3.332133    0.474122    1.599318
H       4.026325    0.269945   -0.023852
