17

C      -1.144006    0.979926   -0.144561
C      -0.032729   -0.035078   -0.045835
O       0.763743   -0.131320    0.849861
O      -0.036597   -0.856542   -1.125744
C       0.983815   -1.865407   -1.141415
C       0.846990   -2.626841   -2.466955
O       1.917920   -3.514781   -2.603205
C      -0.474948   -3.369624   -2.541826
O      -0.510639   -4.563655   -2.719816
H      -1.118257    1.630144    0.728719
H      -1.030823    1.573345   -1.056200
H      -2.111567    0.473375   -0.203839
H       1.974702   -1.408781   -1.081325
H       0.869033   -2.536621   -0.284701
H       0.839667   -1.880521   -3.281226
H       1.516416   -4.390404   -2.725433
H      -1.392287   -2.763380   -2.423942
