18

C      -0.212384    1.374000    0.230057
N      -0.062682   -0.068204    0.122960
C       0.646006   -0.682313    0.960969
O       1.319057   -0.109360    2.015652
C       2.344184   -0.992883    2.498147
C       1.958911   -2.403798    2.046623
C       0.842311   -3.106019    2.845159
O      -0.129507   -2.848390    1.809277
C       0.856771   -2.178507    0.987359
H       0.569023    1.859469    0.826242
H      -0.221495    1.804398   -0.776096
H      -1.182912    1.605176    0.686084
H       3.306383   -0.684788    2.070739
H       2.394940   -0.882988    3.585197
H       2.817557   -3.018155    1.780261
H       0.985516   -4.180803    3.006478
H       0.570237   -2.632504    3.797081
H       0.927835   -2.613118   -0.011142
