16

C      -0.095400    1.559179    0.060318
C       0.027352    0.029929    0.004284
C       0.800617   -0.506798   -1.219103
C       1.942476   -1.370879   -0.665640
O       2.753508   -1.990069   -1.309524
C       1.859896   -1.300411    0.815266
C       0.814841   -0.540027    1.181989
C       0.430676   -0.264976    2.523720
N       0.087830   -0.021003    3.602996
H       0.891956    2.031339    0.026360
H      -0.677029    1.923182   -0.791327
H      -0.596240    1.883152    0.977332
H      -0.983595   -0.394775    0.037616
H       0.181603   -1.107622   -1.890778
H       1.229418    0.301380   -1.820338
H       2.554587   -1.806555    1.472225
