14

C      -0.163171    1.522861    0.225164
C       0.040363    0.012802   -0.019335
C       0.821711   -0.589449    1.065291
N       1.448935   -1.062477    1.912610
C      -1.302847   -0.685624   -0.209303
C      -1.631716   -2.008890    0.330046
O      -2.126366   -0.809307    0.940932
H       0.795258    2.033473    0.340576
H      -0.693819    1.965334   -0.622695
H      -0.757132    1.679042    1.128395
H       0.616230   -0.124735   -0.944434
H      -1.825936   -0.346944   -1.105793
H      -2.381183   -2.617522   -0.172729
H      -0.891815   -2.551547    0.913738
