22

C      -0.311343    1.537244    0.278415
C      -0.033762    0.055047   -0.007921
C       0.824158   -0.089154   -1.274882
C       0.652227   -0.612844    1.195483
N      -0.023932   -0.334280    2.485089
C       0.056390   -1.408036    3.150739
O       0.616995   -2.506905    2.595712
C       0.783795   -2.169321    1.181781
C      -0.263552   -2.959824    0.405164
H       0.624474    2.080534    0.457759
H      -0.809018    2.005940   -0.576920
H      -0.938921    1.656154    1.162763
H      -0.997106   -0.442705   -0.175102
H       1.784597    0.425033   -1.149426
H       1.039034   -1.132247   -1.526401
H       0.320449    0.360876   -2.136110
H       1.660053   -0.175849    1.272745
H      -0.288057   -1.544667    4.170483
H       1.789151   -2.491512    0.902385
H      -1.275098   -2.656676    0.690370
H      -0.152456   -2.822615   -0.673160
H      -0.151839   -4.024597    0.626725
