16

C      -0.309978    1.358672   -0.874499
C      -0.080420    0.109451   -0.058121
C       1.086553   -0.755894   -0.325741
O       1.070969    0.114858    0.803103
C      -1.277909   -0.512890    0.567986
N      -2.480785   -0.295431    0.087508
O      -3.346751   -1.023090    0.895439
C      -2.631833   -1.649246    1.842405
C      -1.312316   -1.375868    1.703117
H       0.637602    1.721877   -1.278418
H      -1.000321    1.153840   -1.696943
H      -0.753207    2.143822   -0.255556
H       1.034415   -1.819925   -0.100451
H       1.774046   -0.479614   -1.124278
H      -3.199497   -2.243324    2.541795
H      -0.485231   -1.700472    2.310127
