21

C      -0.116519    1.206460   -0.314418
N       0.278574   -0.171352   -0.058789
C       1.708838   -0.440275    0.101663
C       0.775722   -0.505530    1.258325
C       0.852934    0.338157    2.547259
C       0.737559   -0.987990    3.367454
C       0.352274   -1.712811    2.071312
C      -0.821604   -2.563706    1.781203
N       0.548194   -3.123242    1.777683
H       0.515254    1.951269    0.195921
H      -0.069480    1.399035   -1.390786
H      -1.151150    1.354063    0.011577
H       2.079168   -1.343510   -0.378465
H       2.397277    0.404767    0.071104
H       1.757892    0.929471    2.699794
H      -0.017876    0.987542    2.675741
H       1.700065   -1.328072    3.757928
H       0.001777   -0.999780    4.174023
H      -1.455126   -2.917753    2.590551
H      -1.322114   -2.406233    0.829509
H       0.871798   -3.237830    0.818821
