22

C       0.001410    1.482444   -0.246166
C      -0.010517   -0.028964   -0.003332
C      -1.420141   -0.627912   -0.039306
C      -1.458632   -2.135525    0.180281
C      -2.870488   -2.775028    0.071567
N      -2.798952   -3.681904   -1.081025
C      -1.605243   -3.622495   -1.511970
C      -1.044106   -4.374520   -2.670225
O      -0.717639   -2.806351   -0.876038
H       1.019337    1.882935   -0.214163
H      -0.422305    1.728980   -1.226096
H      -0.588718    2.012174    0.510253
H       0.606121   -0.533487   -0.755160
H       0.449898   -0.249537    0.969031
H      -2.045076   -0.160577    0.734380
H      -1.900100   -0.404651   -1.001864
H      -0.960113   -2.390585    1.122291
H      -3.148025   -3.335309    0.971062
H      -3.648427   -2.019378   -0.091038
H      -1.819413   -4.998719   -3.112924
H      -0.655708   -3.680184   -3.421937
H      -0.207790   -5.001500   -2.345145
