19

C       0.068461    1.229760    0.325740
O       0.067280   -0.171806    0.083172
C       0.614752   -0.583791   -1.170637
C       1.388868   -1.875383   -0.892784
O       2.352749   -1.683098    0.119896
C      -0.538180   -0.822630   -2.178606
O      -1.550280   -1.607503   -1.571663
C      -1.068309    0.431902   -2.733269
C      -1.503988    1.450632   -3.200773
H       1.089225    1.633292    0.286976
H      -0.556043    1.767869   -0.394579
H      -0.333182    1.373812    1.331794
H       1.302571    0.181731   -1.550665
H       0.672424   -2.669522   -0.637230
H       1.925804   -2.181134   -1.796573
H       1.869166   -1.305371    0.864315
H      -0.146063   -1.423136   -3.009752
H      -1.683211   -1.218830   -0.695718
H      -1.894093    2.345389   -3.619929
