19

C      -0.001534    1.458672    0.106728
C      -0.023568   -0.043584   -0.025934
C       0.582982   -0.663982   -1.294752
O       0.102772   -2.029474   -1.263109
C      -0.671570   -2.141943   -0.065832
C       0.263292   -2.018483    1.140328
O       0.668521   -0.638129    1.089959
C      -1.382589   -0.773007   -0.010737
O      -2.102218   -0.480196    1.161870
H       1.027761    1.823242    0.170192
H      -0.485437    1.930876   -0.753439
H      -0.531246    1.754435    1.015119
H       0.248539   -0.179813   -2.221237
H       1.677446   -0.647001   -1.252599
H      -1.278811   -3.046324   -0.116838
H      -0.246138   -2.219782    2.090163
H       1.134173   -2.674703    1.039762
H      -1.965550   -0.586023   -0.921191
H      -2.943142   -0.945612    1.124459
