21

C      -0.176819    1.457383   -0.219555
C      -0.026242   -0.046303   -0.068590
O       0.644033   -0.546317   -1.218783
C       0.886396   -1.930019   -1.184955
O      -0.300558   -2.696703   -1.277300
C      -0.376892   -3.321581   -2.557824
C       0.961765   -3.072041   -3.187469
C       1.704000   -2.296215   -2.403289
C       3.077892   -1.751539   -2.608486
H       0.801975    1.936822   -0.313531
H      -0.761283    1.696312   -1.112633
H      -0.687876    1.877961    0.651856
H       0.555218   -0.290906    0.836019
H      -1.006693   -0.530362    0.030788
H       1.366166   -2.181947   -0.222694
H      -0.592380   -4.389497   -2.413374
H      -1.202875   -2.897903   -3.150396
H       1.243324   -3.468207   -4.155496
H       3.498161   -2.066705   -3.566767
H       3.059390   -0.656779   -2.575711
H       3.757720   -2.080770   -1.812394
