16

C       0.037309    1.463648    0.020318
C       1.280019    0.654980    0.037560
C       1.955551    0.349752    1.385807
N       0.886806   -0.361594    2.060670
C       0.607505   -0.944960    3.279833
C      -0.653664   -1.467451    3.126340
N      -1.158686   -1.228056    1.857998
C      -0.200837   -0.568620    1.265752
N      -0.046144   -0.019691   -0.030730
H      -0.281226    1.947073    0.940150
H      -0.264155    1.961955   -0.895408
H       1.893131    0.589021   -0.854272
H       2.838987   -0.284027    1.248254
H       2.259763    1.250510    1.929663
H       1.304149   -0.949511    4.100914
H      -1.231008   -2.011858    3.858247
