16

N       0.018334    1.417091    0.099095
C      -0.098608    0.028130    0.007174
N      -1.244172   -0.512476    0.094307
C      -1.387519   -1.950143    0.123141
C      -0.500611   -2.696195   -0.865242
O       0.843144   -2.879133   -0.398389
C       1.673070   -1.860244   -0.146295
O       2.845803   -2.054241    0.044939
N       1.175716   -0.552376   -0.121883
H       0.634170    1.839250   -0.584125
H      -0.896900    1.846615    0.096024
H      -1.203271   -2.354244    1.129850
H      -2.431312   -2.184901   -0.116977
H      -0.862108   -3.715835   -1.015044
H      -0.490877   -2.183745   -1.834635
H       1.937668    0.075598    0.093247
