19

O      -0.309161   -0.004632   -0.388795
C      -0.018081    1.108421   -0.032910
C       1.336751    1.750863   -0.210803
C       1.237363    3.074973   -0.995413
C       2.566167    3.796119   -1.119971
C       3.594320    3.324198   -2.144634
C       2.872441    4.605334   -2.380156
C       3.128438    4.373593    0.124974
O       2.601031    4.323456    1.210318
H      -0.770181    1.762417    0.469184
H       1.734647    1.972189    0.787248
H       2.000593    1.036803   -0.706399
H       0.841040    2.876810   -1.997751
H       0.523297    3.738802   -0.494064
H       4.642938    3.363478   -1.868732
H       3.317126    2.454653   -2.730062
H       2.088922    4.636059   -3.128767
H       3.418042    5.535979   -2.264149
H       4.109342    4.887005   -0.013293
