23

C      -0.060664    1.562127    0.103318
C      -0.002508    0.024256    0.032623
C       0.705016   -0.530056    1.281375
C      -1.435663   -0.531194   -0.042359
C       0.742943   -0.429143   -1.241892
N       2.119114    0.060617   -1.306002
C       2.851796   -0.481970   -2.442341
C       4.208191    0.070327   -2.508787
N       5.268887    0.522390   -2.575558
H       0.931905    2.004437    0.240061
H      -0.505753    1.988463   -0.803403
H      -0.671807    1.883543    0.953076
H       0.205463   -0.189328    2.194449
H       0.692413   -1.625854    1.284164
H       1.748429   -0.207560    1.314505
H      -1.972876   -0.139715   -0.913474
H      -1.434164   -1.624689   -0.111328
H      -2.004720   -0.255425    0.851432
H       0.786715   -1.526393   -1.251265
H       0.152819   -0.132778   -2.130202
H       2.125336    1.073313   -1.363002
H       2.928224   -1.570613   -2.327906
H       2.367315   -0.306490   -3.421326
