22

C      -0.429460    1.176850    0.212130
N       0.317102   -0.037349   -0.039982
C       0.568521   -0.775809    0.945426
O       1.268107   -1.921929    0.783386
C       1.513218   -2.659916    1.958147
C       0.493107   -3.682079    2.413616
C      -0.846129   -3.825167    1.723046
C       1.799251   -4.121750    1.766057
C       1.864994   -4.735500    0.383313
H       0.156402    2.043558   -0.115015
H      -1.349756    1.173793   -0.383258
H      -0.703557    1.325256    1.269862
H       0.265852   -0.574199    1.984495
H       2.079728   -2.103350    2.701713
H       0.448314   -3.822086    3.491208
H      -0.790824   -3.575631    0.661832
H      -1.222021   -4.850162    1.809366
H      -1.589639   -3.161619    2.178321
H       2.534426   -4.525907    2.457390
H       1.210518   -4.224209   -0.323708
H       2.883736   -4.671664   -0.012783
H       1.583602   -5.793429    0.413149
