18

C      -0.055942    1.699464    0.314358
C      -0.070241    0.182615    0.113477
C       0.937407   -0.347810   -0.942258
C       1.925133   -0.710411    0.199009
C       0.752505   -0.593155    1.208227
O       0.935940    0.123983    2.402802
C      -1.487641   -0.322413    0.001106
O      -1.886005   -1.101913   -0.827980
H       0.958871    2.064532    0.488256
H      -0.454929    2.203709   -0.572185
H      -0.658937    1.989079    1.180189
H       0.534849   -1.219231   -1.461873
H       1.282617    0.377946   -1.681099
H       2.442204   -1.671192    0.141849
H       2.658702    0.079730    0.378765
H       0.299905   -1.576791    1.400493
H       1.411554   -0.435055    3.025257
H      -2.171964    0.066688    0.791958
