18

C      -0.333716    0.587963    1.242928
C       0.217481   -0.172137    0.040167
O       1.239924   -1.112270    0.342582
C       2.515706   -0.567865    0.638923
C       2.879537   -0.568222    2.129577
N       2.073600   -1.340241    2.901194
O       3.839363    0.055951    2.535369
C      -0.862331   -0.966007   -0.691103
O      -2.015497   -0.633664   -0.756541
H       0.425162    1.238643    1.684033
H      -1.179443    1.198688    0.918060
H      -0.688050   -0.106332    2.009581
H       0.604950    0.551814   -0.700207
H       3.266233   -1.181194    0.125846
H       2.621045    0.458235    0.269295
H       1.325208   -1.862855    2.479828
H       2.285790   -1.447121    3.878825
H      -0.475356   -1.886017   -1.180881
