16

O      -0.065866    1.436044   -0.055327
C       0.000614    0.014183   -0.000826
C       0.639000   -0.512663    1.284807
C      -0.196553   -1.293724    1.968818
C      -1.523903   -1.413399    1.298686
C      -2.291134   -0.108233    1.193493
C      -1.419558   -0.563804    0.052482
C       0.733339   -0.485402   -1.187688
N       1.331832   -0.860396   -2.102927
H       0.833593    1.781050   -0.098409
H       1.638865   -0.215210    1.577473
H       0.024004   -1.755190    2.924730
H      -2.063130   -2.352894    1.309984
H      -3.361962   -0.164169    1.029838
H      -1.959719    0.729416    1.795152
H      -1.883905   -0.856916   -0.879228
