18

C       0.092024    1.327464    0.124975
O      -0.300420    0.015924   -0.225050
C       0.502261   -0.559256   -1.214363
C       1.904043   -1.143243   -0.804717
C       1.427105   -2.531499   -1.237685
C       0.210149   -2.924986   -0.469081
C       0.038208   -1.959985   -1.623958
C      -0.778512   -2.248878   -2.755293
N      -1.432071   -2.468654   -3.685558
H       1.108009    1.354618    0.545807
H       0.057228    2.003649   -0.742530
H      -0.611762    1.683072    0.880305
H       0.589464    0.105271   -2.084736
H       2.717424   -0.743796   -1.412617
H       2.161692   -1.049249    0.254142
H       2.001872   -3.247273   -1.810396
H      -0.171057   -3.921980   -0.658841
H       0.046166   -2.552451    0.537181
