20

C      -0.261531    0.857956   -0.494444
C       0.990585    1.187259    0.238575
N       0.467001   -0.176900    0.230876
C      -0.050676   -0.701653    1.469162
C      -1.241272   -0.155030    2.244968
C      -1.332981   -1.460590    1.502967
C      -2.239958   -1.825921    0.330884
O      -2.453571   -3.144319    0.883119
C      -1.616732   -2.863866    2.026466
H      -1.190636    1.245327   -0.083750
H      -0.257801    0.750927   -1.575386
H       1.923667    1.337503   -0.296654
H       0.883975    1.764149    1.155303
H       0.755432   -1.103639    2.079294
H      -1.189561   -0.177232    3.329626
H      -1.804936    0.683742    1.848843
H      -3.176873   -1.258638    0.249379
H      -1.752789   -1.865972   -0.651214
H      -0.753836   -3.540970    2.081910
H      -2.178301   -2.917471    2.969137
