10

O      -0.085466   -0.010629    0.004054
C       0.040093    1.165502    0.008599
O      -1.200171    1.942141    0.029856
C      -1.121979    3.261922    0.036086
N      -0.039486    3.962863    0.025127
C       1.108226    3.200522    0.005115
N       1.198050    1.909230   -0.003106
C      -2.408878    3.914410    0.057281
N      -3.439914    4.434690    0.074256
H       2.035277    3.769019   -0.004141
