20

C      -0.006562    1.572452    0.002558
C       0.047720    0.043372    0.012501
C       0.774743   -0.573431   -1.204077
C       1.286348   -1.956483   -0.734583
O       2.476899   -2.381708   -1.385946
C       1.522781   -1.795289    0.754915
C       2.280788   -0.568779    1.198414
C       0.772160   -0.566104    1.213338
H       1.002464    1.998947    0.013470
H      -0.520655    1.946982   -0.889332
H      -0.539712    1.955591    0.879278
H      -0.983128   -0.337104    0.028825
H       0.131157   -0.639437   -2.086832
H       1.642086    0.034709   -1.484689
H       0.494637   -2.710329   -0.876448
H       2.270922   -2.522272   -2.315541
H       1.579556   -2.691123    1.362503
H       2.782365   -0.626815    2.157954
H       2.817205    0.015371    0.458889
H       0.271567   -0.545284    2.175906
