21

C       0.203163    1.488653   -0.328501
C       0.008187    0.048391    0.067345
O       1.179467   -0.773860    0.195377
C       0.388537   -0.536699    1.362019
C       1.039200    0.222320    2.503024
O       0.039495    0.694668    3.406067
C       2.096687   -0.637727    3.199422
C       2.837484    0.105636    4.303512
O       3.744640   -0.806665    4.904538
H       1.039931    1.949017    0.199855
H       0.403857    1.558342   -1.402632
H      -0.703300    2.065474   -0.116794
H      -0.806859   -0.452055   -0.460438
H      -0.177379   -1.412494    1.698088
H       1.514077    1.127161    2.111494
H      -0.349691   -0.073124    3.840361
H       1.620778   -1.529928    3.630940
H       2.813624   -0.994858    2.452235
H       3.367295    0.971331    3.872552
H       2.113969    0.497311    5.032844
H       4.194693   -0.351805    5.622203
