14

N      -0.083075    1.378046    0.084795
C       0.072363    0.023029   -0.059083
O       1.132333   -0.534359   -0.208290
N      -1.148843   -0.698268   -0.057332
C      -2.435549   -0.236310   -0.184606
N      -3.308978   -1.211379   -0.158511
C      -2.565058   -2.358605   -0.010007
O      -3.158999   -3.565276    0.061613
C      -1.228466   -2.088000    0.047190
H       0.784775    1.878005    0.198296
H      -0.869276    1.737573    0.600999
H      -2.666554    0.805968   -0.338276
H      -4.107694   -3.408268   -0.018700
H      -0.347818   -2.693509    0.148306
