19

C      -0.224414    1.533409   -0.048810
C      -0.130561    0.080344   -0.042421
C      -0.058788   -1.123131   -0.031007
C       0.044812   -2.560253   -0.040958
C       1.225236   -3.126292   -0.832233
C       2.562284   -2.758278   -0.219662
O       3.460567   -3.538735   -0.032827
C      -0.394611   -3.321683    1.204008
C      -1.246361   -3.366186   -0.031405
H       0.485839    1.971667   -0.758631
H      -1.227122    1.867354   -0.338089
H      -0.006071    1.954155    0.939082
H       1.168834   -4.216227   -0.900579
H       1.200571   -2.719986   -1.853176
H       2.663530   -1.684804    0.053549
H       0.177849   -4.204690    1.467498
H      -0.743585   -2.739055    2.047759
H      -2.174970   -2.808242   -0.033220
H      -1.264092   -4.279610   -0.615996
