21

C       0.002974    1.546504    0.143456
C       1.435298    2.102183   -0.033255
O       1.746462    2.679712   -1.287970
C       1.608379    1.834103   -2.420556
C       2.366666    0.534715   -2.344881
C       1.792042   -0.673682   -2.342125
C       0.337872   -0.912704   -2.328513
C      -0.503235   -0.567371   -1.347803
C      -0.142098    0.003958    0.002613
H      -0.311494    1.808976    1.160091
H      -0.680726    2.076043   -0.529026
H       1.592706    2.921905    0.674539
H       2.159204    1.310984    0.217449
H       0.550558    1.628128   -2.624779
H       1.997275    2.431614   -3.253865
H       3.452424    0.608214   -2.348660
H       2.430304   -1.555712   -2.405672
H      -0.068900   -1.426937   -3.199569
H      -1.561301   -0.773233   -1.501244
H       0.793597   -0.451347    0.348361
H      -0.916337   -0.324111    0.705121
