16

N      -0.016251    1.316274    0.007949
C       0.079541   -0.030656    0.001061
O       1.107770   -0.679415   -0.012317
C      -1.309672   -0.714787    0.010390
O      -2.319328   -0.045776    0.024046
C      -1.291787   -2.221806    0.002266
C      -2.702379   -2.829343    0.012757
C      -2.676132   -4.286216    0.004824
C      -2.630761   -5.487061   -0.002108
H       0.815971    1.880906    0.002868
H      -0.930487    1.738778    0.018885
H      -0.715392   -2.552248   -0.869931
H      -0.698580   -2.561398    0.859544
H      -3.247184   -2.467555    0.892398
H      -3.264144   -2.458316   -0.852249
H      -2.604073   -6.548409   -0.008790
