21

C       0.105426    1.559528    0.118832
C      -0.066772    0.038462    0.049822
C       0.657022   -0.586811   -1.135059
C       2.229222   -0.629461   -1.147286
O       2.851541   -0.516822    0.116842
C       2.164532   -2.075956   -1.725167
C       0.689511   -2.111673   -1.315775
C      -0.031364   -3.148698   -0.569498
O      -0.313340   -2.878589   -1.950219
H       1.160844    1.821735    0.236692
H      -0.265235    2.041666   -0.792518
H      -0.443713    1.981623    0.966047
H       0.299345   -0.408909    0.982178
H      -1.132542   -0.215781   -0.014673
H       0.306481   -0.132662   -2.070650
H       2.716957    0.116485   -1.776307
H       2.523841   -1.221255    0.685935
H       2.282754   -2.102527   -2.812310
H       2.846370   -2.803026   -1.275380
H       0.450665   -4.105822   -0.370854
H      -0.820940   -2.873115    0.128424
