17

O      -0.005022    1.418624   -0.049855
C       0.014979    0.033444   -0.004424
C      -0.491262   -0.697606    1.254707
C      -0.913923    0.074304    2.381182
N      -1.250358    0.716502    3.284270
C      -1.302528   -0.653927   -0.042635
C      -2.657989    0.004652   -0.282372
C      -2.889223   -1.131781   -1.316872
N      -1.669954   -1.831703   -0.811847
H       0.582725    1.766463    0.630935
H       0.858742   -0.449083   -0.502362
H      -0.011985   -1.643389    1.487881
H      -3.323554   -0.026106    0.581677
H      -2.613922    1.021361   -0.671492
H      -3.802271   -1.722456   -1.203919
H      -2.812171   -0.789634   -2.354655
H      -1.001647   -2.102422   -1.526351
