20

C      -0.099334    1.642714   -0.019859
C       0.049622    0.124283    0.023489
C       0.916566   -0.699413   -0.952573
C       2.354983   -0.171361   -1.098373
N       3.085718   -0.107274    0.184626
C       2.840494    0.977892    1.134436
C       2.257958   -0.371321    1.371410
C       0.823711   -0.743001    1.061342
O       0.927181   -1.779732    0.023970
H       0.769666    2.157430   -0.434841
H      -0.954721    1.909682   -0.648892
H      -0.289641    2.055291    0.976624
H      -0.949947   -0.319327   -0.003405
H       0.499118   -1.009248   -1.915452
H       2.905774   -0.869026   -1.739260
H       2.364705    0.803664   -1.601013
H       3.719391    1.277178    1.700940
H       2.188090    1.799361    0.869321
H       2.725962   -1.024598    2.106667
H       0.281313   -1.095152    1.942780
