18

O      -0.553374    0.759173   -0.741312
C       0.114109    1.042482    0.220261
C       1.341694    1.945118    0.148992
C       1.494151    2.637508   -1.209491
C       2.536128    3.753077   -1.129100
C       2.104343    4.792324   -0.096778
N       1.770067    4.153378    1.170876
C       1.356050    2.871887    1.374545
O       1.038634    2.460739    2.477777
H      -0.111092    0.662173    1.234365
H       2.194986    1.269628    0.324728
H       1.757036    1.898902   -1.971367
H       0.525312    3.051465   -1.512037
H       3.512450    3.339760   -0.847102
H       2.659005    4.243464   -2.099569
H       2.905877    5.516714    0.082679
H       1.240845    5.355783   -0.481370
H       1.728121    4.725259    2.002687
