17

N      -0.045867    1.317456   -0.347602
C       0.001202    0.046288   -0.248210
N      -1.129412   -0.697850   -0.040558
C      -1.347299   -2.134904    0.141690
C      -1.242397   -2.666883    1.593444
N      -2.595671   -2.131906    1.899221
C      -2.838281   -1.794489    0.469998
C      -2.484778   -0.334625    0.178042
N      -3.127025    0.745001    0.154211
H       0.884627    1.697061   -0.506372
H       0.904353   -0.572772   -0.323468
H      -1.005522   -2.762755   -0.681356
H      -1.174295   -3.761935    1.610872
H      -0.442082   -2.251772    2.215243
H      -3.239414   -2.817485    2.272579
H      -3.705738   -2.233531   -0.021270
H      -2.498591    1.525358   -0.048608
