20

C      -0.223540    1.476823    0.028069
N      -0.149694    0.026077    0.042294
C       0.623855   -0.560210    0.854218
C       0.668756   -2.072498    0.878856
C       2.062578   -2.706257    0.787354
O       2.771144   -2.784195    2.013889
C       2.631756   -1.689618    2.897563
C       2.624800   -0.312395    2.242689
O       1.349722    0.141880    1.781718
H       0.666284    1.974308    0.429857
H      -0.393086    1.809785   -1.000581
H      -1.088060    1.807253    0.618039
H       0.169946   -2.444751    1.782774
H       0.072240   -2.397602    0.024838
H       1.963644   -3.741646    0.448041
H       2.660403   -2.175658    0.029454
H       1.724381   -1.782919    3.515128
H       3.492924   -1.748228    3.572193
H       2.914359    0.431827    2.989728
H       3.360446   -0.274326    1.428392
