17

O       0.120337    1.377355    0.127921
C       0.062729   -0.032364   -0.056482
C      -1.365038   -0.555352   -0.013396
C      -1.635729   -2.060834    0.005865
C      -1.568570   -2.445017    1.521480
O      -1.239183   -1.266905    2.252518
C      -2.115810   -0.535461    1.353206
C      -2.824152   -1.904717    0.923420
O      -4.108570   -2.332241    0.753655
H      -0.050760    1.552208    1.058438
H       0.498023   -0.227185   -1.043135
H       0.671979   -0.561218    0.687608
H      -1.982320   -0.064702   -0.772383
H      -1.484863   -2.800711   -0.769752
H      -1.263690   -3.412501    1.896608
H      -2.541311    0.364365    1.793432
H      -4.513231   -2.445622    1.622146
