18

C       0.617067    1.358960   -0.021573
N       0.165818   -0.022708    0.036445
C       0.504726   -0.706326    1.046848
C       0.147311   -2.162459    1.336001
N       0.834654   -2.519049    2.586321
C       1.429113   -1.456636    2.975849
C       2.240770   -1.316840    4.233630
O       3.356369   -0.454408    4.051474
N       1.272286   -0.342477    2.157777
H       1.714994    1.437104   -0.068265
H       0.217625    1.836355   -0.919554
H       0.280874    1.947204    0.846694
H      -0.936090   -2.286004    1.446611
H       0.459513   -2.822344    0.519847
H       1.627345   -0.846149    5.010331
H       2.519301   -2.316290    4.585599
H       4.001033   -0.915874    3.504714
H       1.802457    0.504678    2.270940
