16

C      -0.150644    1.424987    0.104899
C      -0.049206   -0.022522    0.029840
C       0.031876   -1.225383   -0.031842
C       0.149824   -2.619933   -0.108485
C       1.179338   -3.477571   -0.360623
N       0.724724   -4.781673   -0.311284
C      -0.540879   -4.677883   -0.036347
C      -1.538443   -5.764512    0.137309
O      -0.971090   -3.400799    0.102864
H       0.504170    1.831559    0.883848
H       0.127737    1.894918   -0.845111
H      -1.176020    1.730726    0.339362
H       2.208154   -3.234776   -0.572069
H      -1.983391   -5.733718    1.137295
H      -2.353030   -5.670138   -0.588254
H      -1.042736   -6.724946   -0.004268
