19

C      -0.235292    1.439487   -0.102115
C       0.010209   -0.072333    0.002986
C       0.764807   -0.575379   -1.218987
O       0.423968   -1.523646   -1.878415
C       0.843910   -0.438190    1.266117
O       2.080919    0.218815    1.251576
C       0.092948   -0.100408    2.560545
C      -1.239911   -0.757281    2.824382
O       0.603029    0.681323    3.335340
H       0.716036    1.977077   -0.119494
H      -0.790476    1.683375   -1.012294
H      -0.812577    1.809677    0.750908
H      -0.931553   -0.629929    0.031270
H       1.682034    0.002306   -1.463799
H       0.995148   -1.531291    1.262371
H       2.103285    0.732845    2.076877
H      -2.017940   -0.260317    2.233181
H      -1.232612   -1.810247    2.527817
H      -1.492628   -0.661900    3.881047
