20

C      -0.038741    1.566384    0.015383
C      -0.021908    0.024763   -0.033180
C      -1.373683   -0.528579    0.036505
C      -2.487278   -0.981485    0.062155
C       0.697941   -0.489962   -1.277898
C       2.154604   -0.233175   -1.738844
N       1.623356   -1.149333   -2.854009
C       0.982750   -1.947323   -1.703660
C       0.352636   -0.283819   -2.772926
H       0.982820    1.957783   -0.001734
H      -0.580401    1.973741   -0.843020
H      -0.530047    1.919755    0.925003
H       0.540890   -0.338260    0.839252
H      -3.469542   -1.383106    0.099814
H       2.420087    0.768004   -2.089603
H       2.965894   -0.680138   -1.156620
H       1.705591   -2.523259   -1.118333
H       0.136994   -2.564700   -2.015838
H      -0.539327   -0.778330   -3.165179
H       0.480446    0.713447   -3.202986
