22

C      -0.010886    1.503236   -0.149611
C      -0.068907   -0.010235    0.036096
O       0.693338   -0.431541    1.163336
C      -1.510908   -0.596496    0.113955
C      -1.422170   -2.125930    0.141954
C      -2.284087   -0.053284    1.320154
O      -2.105325   -0.135530   -1.127481
C      -3.356485   -0.502756   -1.449541
N      -3.877782   -0.074393   -2.519081
H       1.028183    1.814550   -0.288151
H      -0.593036    1.810517   -1.019761
H      -0.406818    2.029661    0.727642
H       0.403568   -0.485978   -0.831417
H       0.594780    0.233001    1.852447
H      -0.775151   -2.430041    0.967254
H      -2.400580   -2.594516    0.280720
H      -0.989494   -2.495376   -0.792379
H      -2.433666    1.026234    1.241444
H      -3.265847   -0.525627    1.413631
H      -1.731285   -0.269757    2.238780
H      -3.836695   -1.171811   -0.727111
H      -4.820014   -0.447963   -2.614524
