15

C       0.053894    1.423992   -0.043106
N      -0.085918   -0.017477   -0.085655
C      -1.268848   -0.647543    0.179630
O      -2.300624   -0.069982    0.471953
C      -1.184271   -2.097928    0.079794
C      -1.164875   -3.300746    0.009875
C      -1.113086   -4.753870   -0.081643
O      -2.389191   -5.299335    0.211009
H       0.791460    1.730713    0.706969
H       0.356726    1.823686   -1.017383
H      -0.918939    1.837430    0.224491
H       0.710056   -0.588242   -0.317875
H      -0.776868   -5.029715   -1.094980
H      -0.344501   -5.122139    0.618101
H      -2.317220   -6.256803    0.141198
