18

O       0.131250    1.278860   -0.355494
C       0.065465   -0.026044    0.205779
C      -1.326043   -0.609432    0.126166
C      -1.938605   -1.212445   -1.133495
C      -0.909515   -2.040932   -1.915851
C      -0.688315   -2.937545   -0.653459
C      -1.698655   -2.066494    0.107939
O      -2.658036   -2.589892    0.958225
H      -0.254282    1.226146   -1.236555
H       0.799539   -0.696155   -0.264936
H       0.367620    0.090118    1.252722
H      -2.066145   -0.026998    0.672252
H      -2.875226   -0.837024   -1.527338
H      -1.353846   -2.593753   -2.745653
H      -0.033405   -1.503437   -2.292055
H      -1.083453   -3.944949   -0.800827
H       0.325255   -3.011994   -0.246983
H      -2.336130   -2.519881    1.863422
