17

C      -0.283002    1.515710    0.158610
N      -0.012153    0.082249    0.044885
C      -0.045335   -0.688865    1.212106
O      -0.284468   -0.233125    2.303214
C       0.301691   -0.541444   -1.165987
O       0.618783   -1.715311   -1.226711
C       0.235456    0.299558   -2.403852
C       1.457548    0.265335   -3.274572
N       0.244115   -0.429248   -3.676778
H       0.510603    2.098868   -0.313392
H      -1.244258    1.778670   -0.292558
H      -0.319729    1.744481    1.223168
H       0.169215   -1.744700    1.007616
H      -0.377012    1.192695   -2.388038
H       1.709485    1.149046   -3.853424
H       2.298858   -0.320375   -2.914824
H       0.342676   -1.419162   -3.447188
