15

C       0.011068    1.542005    0.150982
O       1.190586    2.210004   -0.267473
C       2.249187    1.349806   -0.551532
C       2.152801    0.190388   -1.498628
C       2.412858   -0.038128   -0.008741
N       1.121009   -0.815772    0.167944
C      -0.003756    0.075641   -0.203759
C       0.813634   -0.530879   -1.279036
H      -0.104915    1.644168    1.242322
H      -0.839597    2.048771   -0.321015
H       3.173009    1.915578   -0.621406
H       2.792461    0.041572   -2.358374
H       3.284492   -0.394908    0.526618
H      -0.958765   -0.406227   -0.004287
H       0.446379   -1.316182   -1.931695
