13

C      -0.053676    1.380428    0.078363
O       0.028717   -0.050168   -0.048900
C       0.640782   -0.508676   -1.119882
N       1.148504    0.238503   -2.022794
C       1.760215   -0.390175   -3.091297
N       2.295592    0.240683   -4.041028
O       1.767041   -1.795809   -3.085062
N       1.175786   -2.532104   -2.035775
N       0.640931   -1.929535   -1.102516
H       0.947932    1.814788    0.109836
H      -0.599033    1.803751   -0.767970
H      -0.585149    1.553525    1.012722
H       2.689895   -0.402735   -4.726497
