19

C       0.775339    1.305420   -2.551621
O       0.825730   -0.065871   -2.240011
C      -0.297426   -0.506584   -1.507075
C      -0.102926   -1.984944   -1.226565
C       0.937586   -2.463072   -0.177663
C      -0.231220   -3.163820    0.512404
C      -1.287508   -2.200387    0.863784
N      -1.239605   -2.695178   -0.529519
H      -0.101755    1.552283   -3.170730
H       0.739553    1.930211   -1.644726
H       1.681981    1.548012   -3.111345
H      -0.395944    0.077811   -0.577658
H      -1.228547   -0.363115   -2.082203
H       0.052766   -2.485669   -2.185428
H       1.683071   -3.139379   -0.597576
H       1.451093   -1.696016    0.410050
H      -0.231719   -4.187345    0.872739
H      -2.157668   -2.572872    1.395482
H      -1.029601   -1.169895    1.094068
