16

O       0.074741   -0.090957   -0.136977
C       0.032750    1.117003   -0.053092
N      -1.160321    1.819677    0.131261
C      -1.285804    3.215639   -0.250319
C      -0.603889    4.529187    0.286483
C       0.864989    4.494567    0.822998
C       1.004412    3.348800   -0.166071
C       1.176131    2.065859    0.164028
C      -0.184432    3.825577   -1.002380
H      -1.991501    1.252942    0.036843
H      -2.298809    3.437917   -0.576738
H      -1.239342    5.405560    0.376309
H       1.353438    5.433373    0.539160
H       1.055953    4.270268    1.875939
H       1.849713    1.778113    0.968036
H      -0.158040    4.164876   -2.030752
