23

C      -0.132632    1.577257    0.006217
C      -0.048499    0.065422    0.018756
C       1.277266   -0.624784   -0.295294
C       0.701908   -0.666992    1.081152
C       1.205669   -0.223653    2.472800
C      -0.185571   -0.686592    3.005973
C       0.278485   -1.809542    2.027750
C       1.685970   -1.698260    2.710447
C       2.944446   -2.253369    2.063456
H       0.781377    2.024510    0.410988
H      -0.266549    1.961009   -1.011594
H      -0.972038    1.938621    0.611144
H      -0.931205   -0.436678   -0.373794
H       1.257619   -1.523617   -0.904909
H       2.137429    0.013460   -0.481105
H       1.739306    0.693877    2.728264
H      -0.235134   -0.955019    4.065148
H      -1.049101   -0.095886    2.694188
H      -0.261239   -2.721658    1.764469
H       1.659016   -1.978325    3.770760
H       3.023408   -2.000007    1.005404
H       3.836655   -1.868275    2.570526
H       2.969010   -3.345645    2.151728
