18

C       0.582177    1.622971   -0.380519
C       0.085945    0.224182   -0.133917
O       1.052837   -0.804862    0.010074
C       0.256424   -0.512432    1.151279
C       0.933470    0.115310    2.334395
O       2.016125    0.663119    2.267076
C       0.180402    0.047088    3.624968
C       0.959594   -0.421309    4.820131
N       0.586250    0.978016    4.686274
H       1.429209    1.855845    0.265417
H       0.899288    1.719482   -1.424118
H      -0.220973    2.346872   -0.206785
H      -0.787192   -0.073944   -0.718953
H      -0.488958   -1.269970    1.398487
H      -0.882004   -0.172903    3.570529
H       0.438561   -0.975953    5.594991
H       1.993892   -0.705060    4.646904
H       1.391224    1.493074    4.325729
