20

C      -0.088936    1.511267   -0.012908
C       0.077061   -0.009880   -0.054409
C       0.687139   -0.572827    1.234634
C       0.824071   -2.112604    1.239106
C       1.713061   -2.588608    2.384008
O       1.764385   -4.005059    2.321559
C      -0.554979   -2.734515    1.374254
O      -1.221073   -3.153819    0.464800
H       0.872756    2.012952    0.143655
H      -0.512570    1.888988   -0.948336
H      -0.756363    1.816069    0.800964
H      -0.892295   -0.485751   -0.240992
H       0.716157   -0.288704   -0.901717
H       1.681562   -0.133918    1.390335
H       0.082179   -0.259039    2.097791
H       1.247897   -2.450040    0.287145
H       2.713218   -2.139744    2.285533
H       1.292600   -2.245073    3.344368
H       2.262661   -4.328887    3.077674
H      -0.947602   -2.731996    2.420465
