19

C      -0.008162    1.531147   -0.282532
C      -0.045011    0.050576    0.012226
N       1.221991   -0.688510   -0.075846
C       0.543089   -0.588991    1.225671
C       1.271595    0.165411    2.305679
N       0.434682    0.615445    3.455468
C       1.389730    0.096548    4.467922
C       2.106361   -0.643812    3.326334
O       2.916675   -1.516020    3.256595
H       0.908113    1.991454    0.094254
H      -0.041884    1.705539   -1.363222
H      -0.867808    2.039678    0.167472
H      -0.932509   -0.452814   -0.370888
H       1.090838   -1.610781   -0.480141
H       0.018775   -1.469021    1.594443
H       1.898889    0.948482    1.857381
H       0.286343    1.616697    3.493711
H       2.043862    0.843706    4.940195
H       0.941555   -0.523078    5.252211
