19

O       0.243118    1.320391   -0.352636
C       0.072589   -0.043461   -0.053541
C       0.260565   -0.429731    1.479003
C      -1.265637   -0.223252    1.634997
C      -2.641449   -0.745767    2.142687
C      -3.099870    0.450245    1.215427
C      -1.874999    1.213628    1.742397
O      -2.683587    0.125850   -0.144158
C      -1.425209   -0.479221    0.151029
H       1.179459    1.528056   -0.270267
H       0.626553   -0.672431   -0.762922
H       0.589199   -1.466387    1.593151
H       0.911800    0.223641    2.064955
H      -2.932187   -1.761228    1.861864
H      -2.877496   -0.544817    3.189581
H      -4.117002    0.837500    1.202660
H      -1.966361    1.533951    2.783249
H      -1.476589    2.002001    1.107581
H      -1.470199   -1.547122   -0.101492
