24

C       2.767933    2.531867   -1.795256
C       2.383506    1.057854   -1.705961
C       3.587321    0.072697   -1.795904
C       3.557353   -0.079836   -0.245512
C       2.129971    0.545682   -0.257021
C       3.725192   -1.470014    0.308660
C       5.054702   -1.976076    0.764143
N       3.975564   -1.770039    1.721570
C       4.121124   -0.688247    2.683665
H       3.576624    2.779110   -1.097508
H       3.110729    2.790628   -2.803237
H       1.915868    3.177183   -1.554432
H       1.572979    0.852126   -2.411579
H       3.317454   -0.862690   -2.296471
H       4.511130    0.449823   -2.243938
H       4.274503    0.605476    0.212448
H       1.906087    1.297763    0.505259
H       1.354118   -0.225423   -0.219489
H       3.046854   -2.192615   -0.149036
H       5.356041   -3.006331    0.590350
H       5.876703   -1.259206    0.762926
H       4.701237    0.176476    2.324756
H       3.130331   -0.334310    2.986879
H       4.626177   -1.079711    3.572885
