19

C       0.014832    1.533855   -0.235916
C       0.004624    0.041545    0.123479
C      -1.375861   -0.552411    0.117731
C      -2.429612   -0.396350    1.216691
O      -2.934352   -1.738574    0.968676
C      -1.900699   -1.951494    0.007848
C      -2.060773   -1.027125   -1.183838
C      -3.381978   -0.567099   -1.671358
O      -3.594837   -0.244786   -2.817423
H       1.032969    1.933125   -0.218000
H      -0.397985    1.698278   -1.236022
H      -0.584083    2.116804    0.471866
H       0.637219   -0.512411   -0.580083
H       0.449815   -0.104120    1.116662
H      -1.981494   -0.339832    2.215588
H      -3.201523    0.372687    1.114031
H      -1.433873   -2.929060   -0.038756
H      -1.339253   -1.193455   -1.979454
H      -4.189014   -0.550154   -0.911671
