18

C      -0.149491    1.406203    0.074129
N       0.022823   -0.034092   -0.046531
C       0.012747   -0.844810    1.148716
C      -1.427543   -1.057077    1.713132
N      -2.375032   -1.698074    0.808259
C      -1.330482   -1.827682    2.960870
N      -1.200073   -2.440175    3.931520
C       0.237156   -0.589158   -1.280703
O       0.250141    0.014921   -2.329736
H       0.593182    1.823218    0.763721
H      -0.014528    1.838719   -0.917138
H      -1.148730    1.667532    0.441405
H       0.441750   -1.824947    0.916479
H       0.642644   -0.383811    1.919752
H      -1.839885   -0.074537    1.974960
H      -2.453722   -1.149278   -0.042421
H      -2.047500   -2.622914    0.544094
H       0.405805   -1.681648   -1.211798
