21

C      -0.035752    1.625922   -0.049825
C       0.020600    0.097073    0.032867
C       0.716036   -0.517286   -1.185606
C       0.728549   -2.081152   -1.237592
C       1.487065   -2.681368   -0.022219
C      -0.649405   -2.597682   -1.257801
C      -1.776852   -3.013307   -1.250966
C       1.414602   -2.490249   -2.473595
C       2.006405   -2.800439   -3.472066
H       0.968797    2.059801   -0.107188
H      -0.588288    1.954602   -0.936820
H      -0.531721    2.050786    0.828245
H       0.543002   -0.193956    0.951568
H      -0.995088   -0.306871    0.110632
H       0.231487   -0.160919   -2.100940
H       1.759645   -0.184284   -1.232841
H       0.967903   -2.444644    0.908637
H       1.550006   -3.767155   -0.116600
H       2.501267   -2.274258    0.018050
H      -2.770754   -3.387354   -1.259329
H       2.515859   -3.083492   -4.359764
