14

O      -0.871005    1.417870   -0.798854
C      -0.191979    1.366705    0.185521
C       1.333393    1.589831    0.214777
C       1.817835    2.229768   -1.019478
N       2.249524    2.779111   -1.939728
N       1.668887    2.264442    1.463560
C       2.984007    2.881209    1.615388
C       1.763812    3.725478    1.484918
H      -0.591169    1.137677    1.194652
H       1.775935    0.582730    0.264172
H       3.451591    2.728466    2.583138
H       3.660712    2.866202    0.764341
H       1.638923    4.264031    0.548673
H       1.322456    4.198907    2.356055
