18

O       0.129803    1.387429    0.008942
C       0.093601   -0.023436   -0.088753
C      -1.336935   -0.551083   -0.005296
C      -1.518564   -2.053338   -0.169628
O      -0.924501   -2.848923    0.865354
C      -2.322709   -2.537649    0.962241
C      -2.630025   -1.357492    1.855715
C      -1.463309   -0.732787    2.529549
N      -1.989888   -0.157006    1.276172
H      -0.437914    1.628145    0.750223
H       0.528237   -0.283199   -1.060185
H       0.710846   -0.502543    0.685940
H      -1.918058   -0.061122   -0.798248
H      -1.529936   -2.503388   -1.160516
H      -3.000954   -3.383648    0.906719
H      -3.642281   -1.256862    2.236347
H      -1.617469   -0.098323    3.397946
H      -0.537546   -1.296283    2.515819
