23

C      -0.126065    0.860843   -2.017352
C      -0.001918   -0.287164   -1.038575
C       1.304775   -0.621074   -0.327930
C       2.581515    0.160680   -0.550359
C       0.147001   -0.047841    0.454021
O       0.330347    1.278307    0.886176
C      -0.592290   -0.921782    1.427820
C      -0.368592   -0.781982    2.911559
C      -1.688911   -0.369453    2.306462
H       0.383763    1.757488   -1.658229
H       0.301318    0.600010   -2.991759
H      -1.178501    1.119760   -2.182703
H      -0.609538   -1.150712   -1.300993
H       1.467826   -1.684429   -0.166747
H       2.401113    1.236489   -0.554872
H       3.300029   -0.045392    0.250201
H       3.054075   -0.116299   -1.499381
H      -0.493325    1.755409    0.738160
H      -0.748152   -1.932054    1.059524
H      -0.332185   -1.680823    3.516919
H       0.292313    0.014283    3.233836
H      -1.899026    0.693987    2.261476
H      -2.562968   -0.985851    2.485146
