21

C      -0.149007    1.526573   -0.292477
C      -0.037493    0.052895    0.058566
O      -1.325123   -0.527457   -0.018159
C      -1.333852   -1.903149    0.293127
C      -2.765553   -2.375354    0.232894
C      -3.371361   -2.881171   -1.029263
C      -3.139667   -3.854768    0.122913
C      -2.113627   -4.910234   -0.032020
O      -2.177378   -6.000355    0.481654
H       0.833429    2.005362   -0.242924
H      -0.545884    1.650904   -1.303936
H      -0.820202    2.037086    0.403886
H       0.651457   -0.459351   -0.634711
H       0.376381   -0.074674    1.073316
H      -0.698139   -2.460164   -0.414521
H      -0.917326   -2.072517    1.300972
H      -3.420255   -1.809813    0.889543
H      -4.398260   -2.632258   -1.269202
H      -2.719689   -2.984901   -1.891782
H      -4.001915   -4.176663    0.696624
H      -1.256183   -4.639679   -0.690651
