15

C      -0.301198    1.146539   -0.454415
C       1.036548    1.305806    0.215575
C       0.391548   -0.056252    0.160465
C      -0.152412   -0.697674    1.371393
C      -0.057153   -0.345894    2.678855
O      -0.753447   -1.258885    3.425686
C      -1.230078   -2.133204    2.513647
N      -0.917270   -1.865845    1.290374
H      -1.173831    1.532547    0.060038
H      -0.352147    1.201594   -1.535935
H       1.911063    1.474223   -0.402390
H       1.065253    1.822479    1.168619
H       0.807290   -0.763570   -0.550237
H       0.427524    0.444970    3.223351
H      -1.814919   -2.957329    2.891502
