18

C      -0.011023    1.592832    0.064429
C      -0.004242    0.062917    0.079249
C      -1.413855   -0.536656   -0.087103
C      -1.431541   -2.033062   -0.050356
C      -1.669909   -2.939068   -1.032984
O      -1.575421   -4.200678   -0.581902
N      -1.255434   -4.163366    0.777841
C      -1.176775   -2.888446    1.066593
O      -0.886524   -2.452569    2.304528
H       0.999829    1.995034    0.181310
H      -0.416583    1.979924   -0.877239
H      -0.625261    1.994213    0.878127
H       0.640590   -0.317566   -0.722138
H       0.425554   -0.299791    1.019872
H      -2.060546   -0.146330    0.709287
H      -1.848801   -0.193507   -1.033100
H      -1.919054   -2.833899   -2.078406
H      -0.766107   -3.227947    2.869031
