16

O      -0.138478    1.436429   -0.018772
C       0.011447    0.071222    0.000902
C       0.694764   -0.881271    1.065684
C      -0.679966   -1.542098    1.313558
C      -1.252985   -0.875586    0.023993
C      -0.704852   -1.522709   -1.256208
O      -1.213353   -2.141951   -2.144690
C       0.687409   -0.874944   -1.079272
N       1.424789   -1.619366   -0.008667
H       0.729304    1.848356   -0.098999
H       1.296070   -0.584618    1.926240
H      -0.696814   -2.631933    1.378056
H      -1.166685   -1.109880    2.192389
H      -2.288637   -0.538066    0.021244
H       1.253079   -0.586946   -1.966785
H       2.398486   -1.330303   -0.021099
