19

C       0.289513    0.377726    0.902379
C      -0.163355    0.392260   -0.543963
O       0.308469    1.143069   -1.365594
C      -1.294494   -0.568145   -0.927627
N      -1.251047   -1.831292   -0.228721
C      -0.309659   -2.876260   -0.690953
C      -1.383505   -3.940513   -0.364155
C      -2.389052   -2.764112   -0.374926
H       0.979605    1.204245    1.076260
H      -0.569399    0.444441    1.577896
H       0.782803   -0.572408    1.131036
H      -2.230924   -0.060390   -0.652001
H      -1.291131   -0.665453   -2.027903
H      -0.100086   -2.814121   -1.771531
H       0.642844   -2.916395   -0.151769
H      -1.536983   -4.734528   -1.094719
H      -1.256099   -4.376054    0.628229
H      -3.135875   -2.706391    0.423964
H      -2.900490   -2.670312   -1.346659
