21

C      -0.038610    1.448620   -0.051115
C       1.345316    0.810256   -0.013562
C       2.175575    0.448856   -1.234886
C       2.286848   -1.100685   -1.310870
C       0.905573   -1.756945   -1.000501
C       0.710844   -2.237803    0.475943
C      -0.074194   -1.062726    1.144654
C       0.087149   -0.027852    0.056162
O      -0.102149   -0.743667   -1.148552
H      -0.344584    2.011715    0.824175
H      -0.414149    1.835934   -0.992832
H       1.893014    0.943725    0.915776
H       1.697116    0.819990   -2.144616
H       3.172154    0.897961   -1.193131
H       2.630242   -1.399649   -2.306778
H       3.042412   -1.456303   -0.601022
H       0.680888   -2.548478   -1.718163
H       0.138757   -3.168056    0.509622
H       1.668795   -2.422346    0.968838
H      -1.123954   -1.329268    1.301424
H       0.350962   -0.751681    2.101610
