20

C      -0.117927    1.546959   -0.103189
C      -0.031871    0.021675   -0.013465
C       0.982717   -0.561795   -1.082578
N       2.333291   -0.567542   -0.436131
C       2.037717   -0.574934    0.789635
O       2.658824   -0.182544    1.944929
C       1.328006    0.262372    2.438787
C       0.630916   -0.527214    1.278997
C       0.027227   -1.847147    1.762936
H       0.872065    2.009467   -0.028482
H      -0.548106    1.848168   -1.063550
H      -0.749599    1.961034    0.689500
H      -1.031654   -0.403123   -0.150336
H       0.698780   -1.568843   -1.413430
H       1.028833    0.070978   -1.974055
H       1.148758   -0.104193    3.450959
H       1.270692    1.351650    2.394419
H      -0.931956   -1.669115    2.261525
H      -0.152493   -2.527534    0.925394
H       0.690186   -2.353687    2.471124
