16

O      -0.015127    1.491968   -0.065229
C       0.065950    0.087212   -0.029720
C       0.064334   -0.605409    1.349725
C      -1.472621   -0.356659    1.537992
N      -1.837884   -1.789279    1.784990
C      -0.723567   -1.846099    0.769874
C      -0.186370   -3.055957    0.227880
C       0.277300   -4.073161   -0.216666
C      -1.301725   -0.599550    0.005120
H       0.873830    1.849798    0.021059
H       0.781705   -0.305178   -0.764084
H       0.830329   -0.642914    2.126801
H      -1.967417    0.477322    2.029363
H      -1.483911   -2.092094    2.697748
H       0.677535   -4.973674   -0.612612
H      -2.092672   -0.628524   -0.742264
