21

O      -0.382634    0.171410   -0.300619
C      -0.016404    1.241964   -0.706477
C       1.350549    1.834961   -0.409012
O       1.453526    3.055158   -1.090347
C       2.648375    3.793374   -0.828316
C       3.870002    3.217662   -1.598527
C       4.078045    4.139523   -2.832946
C       2.816612    5.022098   -2.895352
C       2.440738    5.193684   -1.416630
H      -0.656542    1.897459   -1.337364
H       1.444945    1.964891    0.683657
H       2.119567    1.104305   -0.708300
H       2.815249    3.812800    0.258276
H       4.759672    3.190382   -0.962942
H       3.664256    2.186020   -1.896993
H       4.962059    4.769097   -2.683183
H       4.244494    3.574270   -3.753513
H       2.984479    5.970306   -3.412950
H       2.008833    4.496654   -3.415759
H       1.421526    5.548214   -1.246625
H       3.131554    5.892566   -0.929735
