17

O      -0.109289    1.332866   -0.075516
N       0.021335   -0.067626   -0.052312
C      -1.118664   -0.641473    0.023108
C      -1.241852   -2.157139    0.064461
C      -2.757867   -2.391971   -0.000177
C      -3.361579   -3.514744   -0.774447
N      -3.423054   -3.512534    0.694270
C      -3.381058   -1.046415    0.084832
C      -2.463207   -0.067994    0.083300
H       0.807935    1.618988   -0.132282
H      -0.697007   -2.631698   -0.755360
H      -0.828331   -2.543966    1.003150
H      -4.318379   -3.383860   -1.273405
H      -2.679890   -4.198190   -1.275322
H      -2.719150   -4.142361    1.073141
H      -4.456037   -0.919209    0.132650
H      -2.647043    0.995761    0.114850
