21

C       0.304786    1.526599   -0.049201
C      -0.031655    0.038704    0.032297
O       0.360599   -0.582185   -1.201483
C       1.174621   -1.743795   -1.060071
C       0.493762   -2.767715   -0.129887
C       0.739323   -2.143537    1.236631
C       1.973283   -1.259894    1.115446
C       2.474940   -1.380861   -0.316103
C       0.599863   -0.640878    1.239253
H       1.388102    1.680187   -0.064976
H      -0.118046    1.955826   -0.961832
H      -0.109601    2.065011    0.810164
H      -1.126256   -0.062362    0.113599
H       1.335251   -2.110424   -2.075694
H      -0.563863   -2.888254   -0.384604
H       0.978053   -3.748393   -0.206013
H       0.528883   -2.703361    2.140493
H       2.676475   -1.160061    1.934102
H       3.217490   -2.183666   -0.401352
H       2.913384   -0.464149   -0.720986
H       0.356760   -0.171709    2.187953
