13

C       0.013351    1.504055    0.006990
C       0.000002    0.013377   -0.026215
C      -0.078211   -0.831928   -1.087348
O      -0.056645   -2.114365   -0.627994
C       0.035907   -1.984184    0.724749
N       0.072738   -0.747601    1.131008
C       0.079584   -3.162692    1.498551
C       0.116620   -4.169913    2.154583
H       0.930676    1.874150    0.476033
H      -0.050963    1.920524   -1.001350
H      -0.827801    1.887277    0.593566
H      -0.149517   -0.705354   -2.154168
H       0.149671   -5.055991    2.739719
