14

O       0.143411   -0.056451    0.278275
C       0.015285    1.123085    0.085138
C       1.190438    1.994391   -0.158242
N       2.088157    2.697354   -0.351040
C      -1.288484    1.890805    0.119648
O      -2.459869    1.069042    0.190986
C      -2.870341    1.731238    1.397525
C      -1.893237    1.487691    2.495905
C      -1.609657    2.566402    1.465844
H      -1.336357    2.586880   -0.727718
H      -3.918851    1.980089    1.499774
H      -2.173884    1.880240    3.468067
H      -1.326372    0.561704    2.511654
H      -1.450939    3.608521    1.700912
