21

C       0.129210    1.505275    0.147357
C      -0.022679   -0.000535   -0.110929
C      -1.446830   -0.468787   -0.042123
C      -2.210545   -0.813040    1.226706
C      -3.616354   -0.244129    1.195633
C      -3.864946   -0.334580   -0.298595
C      -3.141438   -1.530913   -0.890779
C      -2.572079   -0.138413   -1.066948
C      -2.029712   -1.857635    0.135118
H       1.176236    1.815958    0.075389
H      -0.443025    2.090270   -0.580582
H      -0.236053    1.770687    1.144790
H       0.398698   -0.246314   -1.095240
H       0.572002   -0.561954    0.621014
H      -1.659152   -0.924040    2.153798
H      -4.326139   -0.846833    1.774233
H      -3.657655    0.787897    1.563132
H      -4.798226   -0.010808   -0.744640
H      -3.564783   -2.201472   -1.625701
H      -2.470911    0.459576   -1.962992
H      -1.525400   -2.805057    0.271538
