12

N       0.558480    0.839786    0.529595
C      -0.270167    0.252514   -0.364457
O      -0.372884    0.545511   -1.537753
C      -1.117168   -0.868194    0.206128
O      -0.908637   -1.273713    1.558893
C      -2.147295   -0.634082    1.247868
C      -2.371456    0.671764    1.830163
N      -2.578653    1.701120    2.312250
H       1.107168    1.632072    0.239542
H       0.590775    0.527846    1.485525
H      -1.310871   -1.668207   -0.504981
H      -3.018725   -1.285490    1.264926
