17

C       0.057947    1.561398    0.021730
C      -0.010975    0.033727   -0.013013
C      -1.451686   -0.524758    0.021749
C      -1.463716   -2.073087   -0.113261
C      -2.801576   -2.635177   -0.229693
C      -3.914487   -3.074737   -0.334472
C      -2.141658   -0.106897    1.246843
N      -2.655640    0.232355    2.224857
H       1.097135    1.900211   -0.013788
H      -0.466458    2.001377   -0.833368
H      -0.395507    1.958023    0.934743
H       0.462587   -0.341911   -0.927574
H       0.550205   -0.388104    0.828959
H      -2.013225   -0.108537   -0.823760
H      -0.873078   -2.332987   -0.999960
H      -0.944503   -2.510066    0.748032
H      -4.896537   -3.470726   -0.415333
