18

C      -0.437830    1.463338   -0.180431
N      -0.156645    0.061789    0.053125
C      -1.249956   -0.821342    0.511052
C      -0.263858   -1.549129    1.452180
C       0.719355   -0.373011    1.186723
C       2.080828   -0.765239    0.602401
O       2.528611   -1.879114    0.607885
C       0.901704    0.569700    2.280881
C       1.096986    1.368514    3.159585
H       0.484385    1.995979   -0.431151
H      -1.115351    1.545831   -1.036576
H      -0.902390    1.968377    0.682894
H      -2.033813   -0.281520    1.063213
H      -1.718302   -1.403684   -0.288796
H      -0.578648   -1.675129    2.486148
H       0.133853   -2.487133    1.065165
H       2.612493    0.084175    0.121153
H       1.256991    2.062814    3.947679
