19

C      -0.108135    1.543345    0.018312
C      -0.005907    0.038099    0.034721
C       1.141909   -0.773587   -0.695958
C       2.116439   -0.427553    0.453732
C       0.777666   -0.778192    1.143648
C       0.613269   -1.976996    0.152217
C      -0.862752   -2.200003   -0.140680
C      -1.288637   -0.728312   -0.221119
O      -2.382394   -0.272084   -0.437286
H       0.850019    2.033923    0.206766
H      -0.484876    1.886715   -0.950245
H      -0.822121    1.882744    0.775277
H       1.336482   -0.766895   -1.770832
H       2.940928   -1.128690    0.615217
H       2.466351    0.603672    0.525605
H       0.547967   -0.776863    2.211590
H       1.268347   -2.839351    0.279748
H      -1.059707   -2.720870   -1.083599
H      -1.403693   -2.725421    0.653365
