14

O       0.023167    0.083828   -0.634156
C       0.053784    1.166980   -0.149722
O      -0.955041    1.820245    0.517712
C      -0.147975    3.038315    0.679100
C       0.214226    3.322460    2.139794
C       1.546228    2.627773    2.309830
C       2.012584    2.110631    1.171745
C       1.059255    2.321603    0.024731
H      -0.619830    3.861173    0.142491
H       0.286197    4.399478    2.336359
H      -0.561605    2.929759    2.807899
H       2.049176    2.566861    3.268271
H       2.940278    1.563711    1.057913
H       1.497627    2.703199   -0.898976
