12

N       0.045009    1.103925    0.546471
C      -0.026912   -0.030824    0.024238
C      -1.149940   -1.001365   -0.268031
C      -0.020284   -1.873045   -0.881755
O       0.961085   -0.839119   -0.508548
C       0.249682   -3.158560   -0.274303
C       0.454930   -4.232211    0.224064
H       1.006147    1.448511    0.565197
H      -1.632077   -1.423769    0.613476
H      -1.902640   -0.642936   -0.970978
H      -0.059235   -1.954615   -1.971832
H       0.643517   -5.180501    0.664529
