19

C      -0.076716    1.459269   -0.152486
C       1.347861    1.933981    0.264660
C       2.241414    0.738839   -0.110162
C       3.509097    0.328657    0.683106
C       3.408309   -1.200497    0.772819
O       2.467847   -1.642907    1.752836
C       2.059096   -1.655164    0.364538
C       1.285989   -0.434500    0.029355
C       0.012732   -0.052363   -0.016045
H      -0.864546    1.893427    0.472397
H      -0.307784    1.752695   -1.187679
H       1.639650    2.875818   -0.208195
H       1.373499    2.079829    1.350944
H       2.528658    0.819007   -1.170887
H       4.433238    0.641973    0.188940
H       3.512160    0.745099    1.696333
H       4.294091   -1.823754    0.670741
H       1.848083   -2.638371   -0.045927
H      -0.857875   -0.694353    0.052983
