19

O      -0.462441    1.172646    1.137264
C      -0.080224    1.262428   -0.000049
C       1.335669    1.609951   -0.413071
C       1.362253    2.799359   -1.357831
C       1.321998    4.210613   -0.806638
C       2.571072    3.682670   -1.441072
C       3.956974    3.480009   -0.833988
O       4.579257    3.935466   -2.055170
C       3.302604    4.177198   -2.685347
H      -0.778000    1.094789   -0.854263
H       1.919335    1.799590    0.492713
H       1.764886    0.729407   -0.913845
H       0.833260    2.640730   -2.295850
H       0.748589    4.959789   -1.343488
H       1.312485    4.329928    0.273141
H       4.204183    4.125651    0.018939
H       4.236393    2.445702   -0.592497
H       3.171537    3.575855   -3.595000
H       3.160498    5.237974   -2.932050
