9

O      -0.106391    0.004799    0.003471
N      -0.033262    1.219602    0.007042
O       0.976362    1.901069    0.002907
C      -1.311066    1.945352    0.017389
N      -1.337478    3.250152    0.020804
O      -2.698988    3.511070    0.030472
C      -3.319625    2.323137    0.031587
N      -2.514481    1.308870    0.023730
H      -4.399371    2.328011    0.038749
