19

C       0.407594    1.550892   -0.230288
C      -0.080323    0.119124    0.025108
C       0.535261   -0.504255    1.259040
C       1.986802   -1.023161    1.238075
C       0.858841   -1.968708    1.465433
O       0.610884   -2.372013    2.791978
C       0.315772   -1.228458    3.579474
C       0.090377   -0.054660    2.613683
O      -0.423040    0.997168    2.907087
H       1.493034    1.576562   -0.374148
H      -0.060804    1.965999   -1.127737
H       0.160887    2.193490    0.617792
H      -1.171313    0.117173    0.134468
H       0.146311   -0.514204   -0.841498
H       2.456381   -1.015428    0.259877
H       2.651944   -0.790351    2.062760
H       0.602098   -2.735540    0.743623
H      -0.587859   -1.409997    4.170288
H       1.133701   -0.994104    4.276023
