19

C      -0.255117    1.474397    0.158585
C       0.036622   -0.002060    0.094882
O      -1.103918   -0.738780   -0.237824
C       1.385013   -0.501265   -0.416614
C       1.015264   -0.680267    1.026283
C       1.699493   -0.060772    2.242937
O       1.457996   -0.999490    3.292277
C       0.465820   -1.877333    2.826010
O       0.658776   -1.992930    1.428152
H       0.642799    2.051383    0.396724
H      -0.630940    1.821146   -0.809493
H      -1.019317    1.687168    0.913024
H      -1.002361   -1.604344    0.181728
H       1.378263   -1.393833   -1.033677
H       2.159526    0.220760   -0.658146
H       2.782831    0.036418    2.115761
H       1.282779    0.922453    2.496496
H       0.601373   -2.859264    3.286373
H      -0.543884   -1.483745    3.039886
