18

C      -0.108061    1.609249   -0.056906
C       0.034398    0.098928    0.021499
C       1.179193   -0.618994   -0.745065
O       2.351504    0.065500   -0.276138
C       2.261952   -0.349723    1.097713
C       2.475667   -1.875172    0.986900
C       1.102842   -1.809075    0.302288
C       0.695729   -0.600875    1.222697
H       0.863382    2.094526    0.063640
H      -0.522957    1.917230   -1.023215
H      -0.779869    1.980799    0.724601
H      -0.915421   -0.407414   -0.187902
H       1.206409   -0.745059   -1.826624
H       2.840200    0.306878    1.745314
H       3.353828   -2.211455    0.430112
H       2.405088   -2.382857    1.952878
H       0.460066   -2.660956    0.089644
H       0.254783   -0.704500    2.212852
