20

C       0.009103    1.525765    0.046777
C      -0.071835   -0.000910    0.010934
O      -1.411280   -0.471773   -0.114920
C       0.689847   -0.565643   -1.168280
C       0.139056   -0.407180   -2.606541
N       0.535348   -1.818053   -2.919873
C       0.934519   -2.055706   -1.509557
C       2.417565   -1.727791   -1.270820
O       2.109164   -0.320872   -1.063065
H       1.053527    1.846377    0.088834
H      -0.457658    1.957781   -0.844191
H      -0.505182    1.921579    0.930076
H       0.391127   -0.405567    0.925570
H      -1.938974   -0.049392    0.569671
H      -0.941210   -0.232062   -2.619676
H       0.647888    0.340058   -3.222981
H      -0.259743   -2.384275   -3.191132
H       0.485634   -2.907407   -0.997937
H       2.859604   -2.168648   -0.368160
H       3.073866   -1.887994   -2.131931
