17

C      -0.172295    1.559117   -0.017347
N       0.169254    0.138162    0.081669
C       1.382879   -0.526895   -0.295930
C       2.695485    0.176110    0.227599
O       2.342776    1.397536    0.886042
C       2.190534    0.162794    1.593983
C       0.858103   -0.564437    1.120470
C       0.203422   -1.644564    1.928323
H       0.475469    2.077634   -0.727349
H      -1.209374    1.642378   -0.364545
H      -0.084771    2.065410    0.946691
H       1.376548   -1.288495   -1.069706
H       3.700700    0.076751   -0.163453
H       2.699554    0.051644    2.544381
H      -0.323774   -1.223117    2.793125
H      -0.523727   -2.185146    1.317335
H       0.943132   -2.358716    2.307386
