19

C      -0.358221    1.153442    0.130813
O       0.355986   -0.042369   -0.086910
C       0.842069   -0.641983    1.077907
C      -0.198070   -1.101141    2.133397
N      -1.104002   -1.921786    1.260398
C       0.036601   -2.874698    1.255928
C       0.577539   -2.426024    2.627310
N       1.953282   -2.481295    2.114153
C       1.341760   -2.080930    0.814871
H       0.237768    1.887283    0.697175
H      -0.588115    1.573467   -0.851344
H      -1.299498    0.973256    0.667114
H       1.634747   -0.022479    1.530730
H      -0.650368   -0.374310    2.806289
H      -1.823788   -2.332764    1.855604
H      -0.098956   -3.900910    0.921920
H       0.333980   -2.862313    3.597387
H       2.597928   -1.788821    2.496291
H       1.892347   -2.275216   -0.103827
