23

C      -0.110944    1.553697    0.068874
C      -0.018222    0.028415   -0.039251
C       0.782562   -0.480322   -1.252013
C       2.253682   -0.044873   -1.217821
C       0.660619   -2.008325   -1.353061
N       1.256399   -2.518924   -2.586806
C       1.168749   -3.968624   -2.695181
C       1.730327   -4.440319   -3.964434
N       2.150735   -4.811327   -4.974136
H       0.869744    2.013355    0.221917
H      -0.544437    1.988639   -0.838875
H      -0.745276    1.845798    0.911426
H       0.431628   -0.376196    0.878266
H      -1.033631   -0.385828   -0.087599
H       0.317931   -0.056012   -2.156773
H       2.355872    1.040855   -1.293279
H       2.727200   -0.361225   -0.280114
H       2.807514   -0.499940   -2.042006
H       1.191952   -2.472804   -0.510225
H      -0.401504   -2.300716   -1.251427
H       0.801260   -2.093625   -3.388919
H       1.742959   -4.419331   -1.875819
H       0.141130   -4.369643   -2.609754
