19

C      -0.079120    1.398832   -0.106729
N      -0.001293   -0.047197   -0.038835
C      -1.287461   -0.730550    0.057399
C      -1.127744   -2.214404    0.123102
C       0.081932   -2.768841    0.091994
N       1.256535   -2.032059   -0.001325
C       2.536510   -2.721933   -0.028754
C       1.240800   -0.637329   -0.069631
O       2.276324    0.006382   -0.151588
H       0.929331    1.800579   -0.175748
H      -0.660852    1.712353   -0.984196
H      -0.574568    1.800238    0.787737
H      -1.827833   -0.353631    0.944339
H      -1.912722   -0.440264   -0.806032
H      -2.015019   -2.828938    0.196429
H       0.229084   -3.842039    0.137972
H       2.598915   -3.396369   -0.890714
H       3.317425   -1.968196   -0.104473
H       2.685153   -3.307175    0.886203
