20

C       0.096151    1.523134    0.166625
C      -0.043954    0.009585   -0.013002
C       0.639457   -0.752954    1.136019
O      -1.439222   -0.264624   -0.038597
C       0.653261   -0.406918   -1.326392
O       1.821443   -0.167507   -1.538423
N      -0.127939   -1.185763   -2.185264
C      -1.173310   -0.635436   -3.040670
C       0.101690   -1.169709   -3.614733
H       1.147067    1.810984    0.108287
H      -0.459978    2.053092   -0.611992
H      -0.310747    1.818768    1.137321
H       0.192538   -0.454127    2.088122
H       0.506516   -1.834088    1.015862
H       1.711407   -0.543754    1.153014
H      -1.546147   -1.205144   -0.220462
H      -2.089634   -1.215242   -3.102551
H      -1.313980    0.441291   -3.031386
H       0.842641   -0.462346   -3.976068
H       0.105715   -2.140457   -4.100994
