20

C       0.159197    1.499038    0.015558
C       0.064996   -0.023288    0.022517
C       0.827287   -0.686154   -1.117529
N       2.102371   -0.779352   -0.319660
C       1.128392   -0.718095    0.904513
C       0.876469   -2.229815    0.778208
C       1.314995   -2.025419   -0.665293
C       1.935613   -3.042252   -1.575827
O       3.064159   -3.655649   -0.975580
H       1.193554    1.825134   -0.131110
H      -0.448449    1.928087   -0.788307
H      -0.200480    1.915023    0.962634
H      -0.971862   -0.345203    0.181542
H       0.843798   -0.391410   -2.162229
H       1.470654   -0.264254    1.833830
H       1.622367   -2.819608    1.315829
H      -0.128399   -2.610774    0.990076
H       1.225409   -3.847575   -1.795091
H       2.198488   -2.562677   -2.532285
H       3.637429   -2.933026   -0.692111
