23

C       0.789246    1.477642   -0.984063
C       0.424129    0.146863   -0.519212
C       0.125731   -0.957291   -0.138886
C      -0.252504   -2.271333    0.340188
C      -0.134367   -2.577817    1.868354
C      -1.501885   -3.329061    1.808157
C      -1.319971   -4.841669    1.652495
C      -2.488757   -3.013437    2.927598
C      -1.771188   -2.627626    0.439376
H       1.572807    1.433758   -1.748985
H      -0.070127    1.997514   -1.422652
H       1.165061    2.098859   -0.163087
H       0.273763   -3.039829   -0.235814
H       0.740518   -3.148772    2.190702
H      -0.195981   -1.660239    2.458852
H      -0.938862   -5.287788    2.578413
H      -2.272755   -5.328373    1.413931
H      -0.613610   -5.086335    0.851895
H      -2.623693   -1.933053    3.044523
H      -3.472356   -3.453717    2.724392
H      -2.140116   -3.413193    3.887417
H      -2.379338   -1.726658    0.552703
H      -2.188286   -3.237898   -0.366181
