23

C       0.023278    1.527403   -0.018668
C       0.012361   -0.004607    0.066535
C       0.594662   -0.481745    1.403937
C      -1.410667   -0.542191   -0.180228
C      -1.501115   -2.055109   -0.242498
C      -1.930287   -2.893207    0.942341
O      -2.335931   -2.178251    2.086690
C      -2.844579   -2.764675   -0.252942
O      -4.023074   -2.035013   -0.088256
H       1.036762    1.924259    0.102020
H      -0.362783    1.878115   -0.981775
H      -0.600341    1.967023    0.769151
H       0.656805   -0.388880   -0.738370
H       0.675033   -1.571630    1.445122
H       1.594965   -0.065349    1.564088
H      -0.040227   -0.168709    2.240293
H      -2.075112   -0.159195    0.601092
H      -1.785825   -0.133343   -1.127129
H      -0.735925   -2.523138   -0.859242
H      -1.406967   -3.824287    1.150875
H      -2.858320   -2.775256    2.633936
H      -2.988403   -3.609890   -0.919277
H      -3.983924   -1.664291    0.804158
