20

C      -0.026431    1.487259    0.034733
C      -0.023578   -0.009604   -0.006997
C       0.017423   -0.785351   -1.095840
C       0.003008   -2.261917   -0.765992
C       0.061976   -2.277796    0.759690
C       1.253119   -1.641517    1.434295
C      -0.023657   -0.840218    1.250124
C      -0.836375   -0.406619    2.447828
H       0.840193    1.871653    0.588134
H      -0.005281    1.914738   -0.971289
H      -0.916793    1.873286    0.546451
H       0.082189   -0.415487   -2.113981
H      -0.909042   -2.749591   -1.137885
H       0.844593   -2.798990   -1.223915
H      -0.451485   -3.068657    1.295323
H       1.485891   -1.985483    2.437934
H       2.118868   -1.376010    0.835338
H      -0.467965    0.537499    2.866215
H      -1.891946   -0.265246    2.187612
H      -0.787893   -1.156764    3.243326
