21

C      -0.125821    1.536776    0.045728
C       1.406549    1.274390    0.132676
C       1.064480    0.131216    1.133030
C       0.046568   -0.008542   -0.036965
C       1.236489    0.234320   -1.025665
C       0.926981    0.752248   -2.461273
C       1.813525   -0.069054   -3.357644
C       2.553671   -0.943056   -2.681548
C       2.309824   -0.880683   -1.198097
H      -0.599207    1.918432    0.954468
H      -0.502282    2.052780   -0.838605
H       2.201196    2.019196    0.225567
H       1.799010   -0.664684    1.263550
H       0.649293    0.444146    2.094933
H      -0.742488   -0.757718   -0.141622
H      -0.132433    0.628050   -2.723622
H       1.136918    1.825430   -2.565298
H       1.825235    0.060921   -4.434631
H       3.262576   -1.636364   -3.121673
H       3.233551   -0.650393   -0.650095
H       1.964224   -1.847799   -0.808402
