16

O      -0.054578    1.452634   -0.074340
C      -0.012393    0.041010   -0.049981
C      -1.395378   -0.573974    0.053559
O      -2.098363   -0.179949   -1.144399
C      -3.359481   -0.574908   -1.219985
N      -4.048142   -1.294799   -0.393800
C      -5.298043   -1.377098   -1.012641
C      -5.274561   -0.695661   -2.175699
O      -4.006912   -0.163069   -2.324226
H      -0.611140    1.702331   -0.820223
H       0.500711   -0.367112   -0.934758
H       0.566218   -0.246316    0.833805
H      -1.356593   -1.666900    0.109590
H      -1.938465   -0.193634    0.923881
H      -6.112762   -1.923046   -0.564562
H      -5.973976   -0.485940   -2.964929
