17

C      -0.029096    1.583744   -0.085236
C      -0.065520    0.060212   -0.054394
N      -1.435523   -0.407140    0.062441
C       0.745888   -0.647881   -1.189027
N       1.703020   -1.110909   -0.164296
C       2.867514   -1.847316   -0.285604
O       3.572380   -2.184137    0.628810
C       0.988776   -0.547816    0.921333
O       1.152803   -0.583802    2.102734
H       0.985704    1.954126   -0.254756
H      -0.683227    1.957016   -0.878240
H      -0.374813    1.987752    0.871810
H      -1.463362   -1.410187    0.226400
H      -1.876381    0.024960    0.869935
H       0.201109   -1.460240   -1.677168
H       1.184039    0.014120   -1.939954
H       3.077383   -2.091529   -1.347112
