14

O       0.101807    1.402028   -0.019199
C       0.042484    0.000818   -0.043549
C      -1.415244   -0.529204    0.003328
C      -1.441957   -2.076319   -0.074986
C      -2.789583   -2.621202   -0.212115
N      -3.857842   -3.043037   -0.333183
C      -2.060816   -0.034867    1.221519
N      -2.503912    0.389240    2.201163
H      -0.182648    1.706927    0.850421
H       0.490551   -0.315017   -0.990899
H       0.618788   -0.458909    0.773726
H      -1.952501   -0.113397   -0.855613
H      -0.847907   -2.392352   -0.939653
H      -0.971013   -2.505933    0.815409
