20

C      -0.145136    1.402775   -0.193127
C       1.268777    0.986572    0.120718
C       0.179257   -0.051001    0.051038
C      -0.310605   -0.717089    1.306670
C      -1.698509   -1.341859    1.183335
C      -2.026782   -2.105375    2.470162
N      -0.935509   -2.966454    2.918980
C       0.224414   -2.726595    2.477280
O       0.654765   -1.736707    1.657663
H      -0.698653    1.936420    0.572933
H      -0.385715    1.708882   -1.204675
H       2.003607    1.008171   -0.675730
H       1.666365    1.234011    1.099169
H       0.182639   -0.703382   -0.817901
H      -0.313964    0.016600    2.126876
H      -2.437705   -0.561048    0.978263
H      -1.702139   -2.030496    0.329693
H      -2.275108   -1.405715    3.280199
H      -2.914890   -2.731327    2.329670
H       1.063754   -3.365985    2.747339
