16

C       0.184829    1.551924   -0.088817
C       0.078778    0.034742   -0.009970
O       0.609800   -0.510245   -1.208262
C       0.785828   -1.907416   -1.108094
C       1.842276   -2.191942   -0.061889
O       1.500384   -1.607821    1.206868
C       0.730841   -0.498237    1.276125
O       0.522127    0.011183    2.343351
H       1.230331    1.854405   -0.193921
H      -0.370723    1.913691   -0.957138
H      -0.222465    1.997185    0.819395
H      -0.984551   -0.252572    0.079611
H      -0.161906   -2.408206   -0.850182
H       1.112275   -2.268771   -2.087412
H       1.959442   -3.264086    0.120362
H       2.806421   -1.780079   -0.381289
