24

C       0.190523    1.488307    0.303495
C      -0.019675   -0.027517    0.314480
C      -1.319728   -0.459701   -0.376845
C      -1.508378   -1.960991   -0.353467
N      -2.040798   -2.554128    0.885921
C      -2.822882   -2.657911   -0.357083
C      -4.153406   -1.954332   -0.400951
O      -5.149154   -2.879941   -0.015024
C      -6.439407   -2.321568   -0.011291
H       1.124596    1.765798    0.801951
H       0.231536    1.876677   -0.720570
H      -0.627193    2.004403    0.818857
H       0.831809   -0.520051   -0.174534
H      -0.035788   -0.395118    1.347520
H      -2.168756    0.026319    0.115420
H      -1.316178   -0.113661   -1.419899
H      -0.702134   -2.506002   -0.846900
H      -1.583376   -3.436647    1.095554
H      -2.851033   -3.628210   -0.851082
H      -4.148269   -1.087155    0.275828
H      -4.355120   -1.583630   -1.422184
H      -7.136624   -3.107714    0.289126
H      -6.521918   -1.483621    0.699382
H      -6.730005   -1.951693   -1.008400
