18

C       0.170373    1.499831    0.010543
N      -0.106070    0.028631   -0.029368
H      -1.119206   -0.091646   -0.068709
C       0.526631   -0.686569   -1.229666
C       1.784067   -1.360625   -0.662599
C       1.514088   -1.431809    0.817129
C       0.465316   -0.692092    1.151171
C       2.388619   -2.269077    1.805593
O       2.030957   -2.164490    2.986993
O       3.288354   -2.892221    1.219338
H       1.251367    1.637852   -0.004157
H      -0.294355    1.985590   -0.850026
H      -0.234963    1.904626    0.938671
H      -0.207017   -1.421943   -1.564333
H       0.686898    0.046189   -2.022068
H       1.947895   -2.358025   -1.074239
H       2.699580   -0.792792   -0.858081
H       0.027673   -0.493511    2.117231
