17

C      -0.003024    1.525319   -0.083057
C       0.006386    0.012573   -0.034426
N       0.342814   -0.544699   -1.334877
C       0.379208   -1.821971   -1.392876
N       0.093801   -2.624105   -0.326336
C      -0.201779   -1.949529    0.902393
C       0.625211   -0.672482    1.241993
O      -0.508772   -0.204417    2.048534
C      -1.120425   -0.697068    0.808285
H       0.978974    1.891772   -0.398245
H      -0.729926    1.867278   -0.826460
H      -0.253078    1.947701    0.891048
H       0.633220   -2.329189   -2.322526
H       0.235324   -3.618721   -0.359763
H      -0.400390   -2.626892    1.730728
H       1.628428   -0.584866    1.659049
H      -2.204161   -0.639901    0.707238
