16

N      -0.084450    1.193462    0.069994
C      -0.082354   -0.062899    0.034956
O       1.025399   -0.895859    0.027393
C       0.413365   -2.218144   -0.023151
C      -0.685028   -2.027677   -1.097130
C      -1.244375   -1.028311   -0.015495
C      -0.718273   -2.077067    0.999059
C      -1.411563   -3.045737    1.834316
O      -0.620423   -1.967831    2.385966
H       0.870009    1.556819    0.102015
H       1.182019   -2.986210   -0.025578
H      -0.361859   -1.601075   -2.047152
H      -1.319750   -2.902815   -1.240648
H      -2.247783   -0.615408   -0.016042
H      -2.485251   -2.957812    1.990668
H      -0.997135   -4.042145    1.979248
