16

O      -0.511317    0.314593   -0.315205
C       0.483261    0.567558   -0.936044
N       1.619732    1.207584   -0.452199
C       1.848662    1.707636    0.826144
O       1.091572    1.650727    1.761396
C       3.221872    2.368818    0.955378
C       4.260347    1.600320    1.805640
C       5.075313    1.539601    0.497917
O       4.046397    2.264194   -0.228453
H       0.617441    0.310892   -2.006738
H       2.392877    1.352856   -1.091759
H       3.060666    3.412257    1.248610
H       4.708976    2.178538    2.612702
H       3.912107    0.644503    2.197331
H       6.020388    2.091777    0.498653
H       5.241336    0.542099    0.076988
