19

C       0.025412    1.485666    0.017050
N       1.249866    0.662323    0.030618
C      -0.073108    0.011364    0.012955
C      -0.397742   -0.847174    1.239748
C      -0.554036   -2.229279    0.645283
C      -0.605488   -2.199598   -0.686287
C      -0.518781   -0.803153   -1.197103
C      -1.459006   -0.278386   -2.230837
N      -0.048759   -0.545660   -2.566716
H      -0.164155    2.043857    0.930306
H      -0.230546    2.026368   -0.892832
H       1.673915    0.642350   -0.894754
H       0.404877   -0.777261    1.980461
H      -1.325364   -0.522688    1.732056
H      -0.639461   -3.119984    1.256662
H      -0.732671   -3.044596   -1.351680
H      -2.174284   -0.947840   -2.701837
H      -1.792721    0.751651   -2.139785
H       0.467825    0.331797   -2.609515
