21

C      -0.176406    1.453635    0.080279
C       0.027906   -0.058569   -0.016106
C       0.664846   -0.522454   -1.358225
C       2.109935   -0.990874   -1.166246
C       2.836451   -0.072740   -0.144134
C       2.113610   -0.898486    0.946132
O       0.754631   -0.521688    1.149046
C       2.136503   -2.088725   -0.047367
O       1.104802   -3.027937    0.050351
H       0.757611    2.005246   -0.056939
H      -0.882079    1.786207   -0.688928
H      -0.585989    1.713015    1.060422
H      -0.958934   -0.525746    0.081945
H       0.084649   -1.349934   -1.777815
H       0.626812    0.300788   -2.079573
H       2.594653   -1.209933   -2.120037
H       3.913300   -0.258763   -0.113970
H       2.661066    1.002747   -0.182710
H       2.547725   -1.000122    1.942939
H       3.096151   -2.614648   -0.038605
H       0.427067   -2.615194    0.602958
