19

C       0.023006    1.554258   -0.003488
N       1.223850    0.714838   -0.148551
C      -0.089634    0.072658    0.050162
C      -0.274129   -0.665766    1.311264
C      -0.230077   -2.100869    1.688013
C       0.585308   -1.809324    2.945103
C       0.025128   -0.365971    2.836657
C      -1.482690   -0.586884    3.033320
N      -1.536937   -1.340884    1.736410
H      -0.016051    2.133546    0.914765
H      -0.375714    2.063110   -0.877119
H       1.494802    0.656861   -1.126336
H      -0.558074   -0.411379   -0.805346
H      -0.220504   -2.977632    1.053406
H       0.369700   -2.367012    3.863292
H       1.654828   -1.847889    2.725462
H       0.565232    0.478778    3.258706
H      -1.813977   -1.146331    3.916687
H      -2.080230    0.321810    2.924800
