14

O      -0.048116    1.429180   -0.056116
C       0.030567    0.058580   -0.005896
C      -1.002487   -1.033890    0.016696
O      -0.406264   -1.779305   -1.041177
C       0.769602   -0.911924   -0.977944
C       1.791564   -1.610030   -0.096972
O       1.120984   -1.761456    1.165794
C       0.021996   -0.883848    1.156337
H       0.589567    1.798864    0.565136
H      -2.079818   -1.054427    0.130635
H       1.095203   -0.563790   -1.958456
H       2.058569   -2.603270   -0.468340
H       2.705560   -1.004513    0.017203
H      -0.325488   -0.583972    2.138196
