20

C       0.267960    1.450086   -0.376055
C      -0.092439    0.099112    0.195539
N       0.963556   -0.928265    0.227158
C       0.405644   -0.435361    1.492993
C       1.351970    0.319835    2.416580
C       2.060951   -0.568725    3.332980
C       2.623390   -1.332752    4.075967
C       3.313493   -2.211370    5.018801
O       2.772493   -2.172908    6.333961
H       1.292144    1.732383   -0.123132
H       0.191175    1.434090   -1.468466
H      -0.410272    2.225668   -0.003545
H      -1.092450   -0.238695   -0.077136
H       0.592705   -1.846077   -0.000527
H      -0.274454   -1.095615    2.028818
H       2.073960    0.882315    1.816009
H       0.779980    1.056946    2.996766
H       3.228854   -3.254858    4.695006
H       4.388596   -1.969230    5.023234
H       2.717052   -1.246891    6.591658
