17

O      -0.248766    0.414878    0.676652
C       0.299662    0.840208   -0.307309
C       1.457573    1.821163   -0.269775
C       1.200829    3.078061   -1.113298
C       2.402985    4.047634   -1.172607
C       3.113730    3.630698   -2.462632
C       2.017925    2.967479   -3.289990
O       2.022292    2.688042   -4.451049
O       0.948940    2.699119   -2.481760
H      -0.016544    0.533730   -1.326243
H       1.642709    2.097222    0.772340
H       2.350013    1.309758   -0.657876
H       0.294811    3.577581   -0.759360
H       2.043740    5.077362   -1.248983
H       3.028769    3.976596   -0.281125
H       3.560550    4.451717   -3.024345
H       3.901415    2.888947   -2.291122
