18

C       0.226320    1.572190   -0.034305
C       0.042885    0.063861    0.037989
O       0.654982   -0.522740   -1.115830
C       1.196028   -1.794922   -0.792964
C       1.438533   -1.785946    0.706963
C       1.727434   -3.054798    1.456929
O       2.146690   -0.601204    1.115321
C       0.716374   -0.616687    1.214452
H       1.289431    1.817366    0.025677
H      -0.170727    1.955174   -0.977984
H      -0.302242    2.064836    0.788042
H      -1.032226   -0.187373    0.067731
H       0.497764   -2.610324   -1.046197
H       2.113177   -1.931410   -1.376782
H       2.666292   -3.502823    1.113486
H       1.820430   -2.853592    2.526655
H       0.929430   -3.788844    1.304466
H       0.297469   -0.550235    2.215672
