18

C       0.000849    1.496553    0.044875
C      -0.041767    0.004894   -0.021643
C      -0.082097   -0.782678   -1.100794
C      -0.016545   -2.233961   -0.746085
C       1.280373   -2.656326   -0.083776
C       0.085170   -2.267534    0.760851
C      -0.006256   -0.827060    1.262796
O       1.019976   -0.434248    2.169061
H       0.863986    1.829824    0.631969
H       0.055050    1.949034   -0.948852
H      -0.887241    1.893665    0.554359
H      -0.108243   -0.432743   -2.127799
H      -0.590238   -2.965179   -1.304133
H       1.542618   -3.709344   -0.090707
H       2.126973   -1.981574   -0.173600
H      -0.388844   -3.049750    1.340688
H      -0.932098   -0.680130    1.835182
H       1.858736   -0.714765    1.785602
