17

O      -0.138172    1.459135    0.552988
C      -0.179142    0.070228    0.661440
C      -0.832575   -0.581628   -0.536522
O      -1.211866    0.108724   -1.467180
C      -1.071305   -2.084290   -0.478529
O      -2.374940   -2.283050    0.123815
C      -2.967719   -2.623519   -1.158963
C      -1.562585   -2.750893   -1.799820
O      -1.285394   -2.175956   -3.031733
H      -0.527249    1.666909   -0.310264
H       0.833829   -0.360702    0.756857
H      -0.732547   -0.251661    1.559268
H      -0.281719   -2.589581    0.090070
H      -3.586946   -3.522695   -1.089308
H      -3.556979   -1.794234   -1.569127
H      -1.236949   -3.792711   -1.849092
H      -1.422041   -1.221884   -2.934967
