21

C      -0.084677    1.594132   -0.081785
C       0.028524    0.072738   -0.004919
C      -1.343691   -0.590321   -0.148992
C       1.076692   -0.613603   -0.919800
C       2.484019   -0.238552   -0.557434
C       1.764465   -1.256669    0.289678
C       0.799361   -0.535314    1.203337
C       0.975533   -0.059941    2.577002
O       0.125984   -1.180032    2.268369
H       0.887446    2.085719    0.016459
H      -0.520262    1.902086   -1.039158
H      -0.734735    1.977750    0.712920
H      -1.801035   -0.314195   -1.105595
H      -1.264231   -1.680402   -0.108202
H      -2.014437   -0.276332    0.655826
H       0.835069   -1.071155   -1.872151
H       3.253274   -0.641128   -1.209137
H       2.721118    0.742222   -0.153131
H       2.119593   -2.269808    0.430456
H       1.886330   -0.303187    3.123141
H       0.454052    0.833202    2.919333
