22

C       0.225891    1.315494   -0.743240
C       0.166997   -0.207539   -0.571519
C       0.785811   -0.695667    0.738884
O       2.178765   -0.392381    0.769083
C       0.121518   -0.390167    2.114980
N       0.206080   -1.833777    2.546146
C      -0.637057   -2.624425    1.625015
C      -2.027327   -2.247847    1.162934
C       0.681196   -2.169669    1.129827
H       1.258888    1.677957   -0.778944
H      -0.252435    1.622235   -1.677670
H      -0.287198    1.832900    0.075579
H      -0.872335   -0.540443   -0.640304
H       0.707572   -0.693022   -1.392930
H       2.274694    0.563431    0.833018
H       0.764597    0.216249    2.755800
H      -0.889361    0.029305    2.119898
H      -0.597844   -3.666810    1.942509
H      -2.142310   -1.194927    0.905304
H      -2.302687   -2.838416    0.282591
H      -2.750454   -2.475009    1.953851
H       1.504591   -2.857203    0.959213
