14

C      -0.102503    1.325758    0.019314
O      -0.000417   -0.080365    0.006424
C       0.663358   -0.560346   -1.139069
C       0.652933   -2.054138   -1.101429
N       1.754686   -2.750222   -1.007582
O       1.306223   -4.075114   -1.019079
C      -0.023599   -4.011658   -1.117000
N      -0.499693   -2.811082   -1.176112
H       0.887850    1.807265    0.018151
H      -0.669731    1.700387   -0.847096
H      -0.629846    1.601444    0.934918
H       0.153331   -0.222677   -2.056527
H       1.706009   -0.211677   -1.181417
H      -0.559777   -4.949098   -1.140334
