19

C      -0.001135    1.632213    0.033572
C       0.149285    0.114857   -0.122723
C       0.706990   -0.542050    1.136459
C      -0.127395   -0.662317    2.446840
N       0.213844   -2.130569    2.592123
C      -0.386376   -2.823665    1.425615
C      -1.671387   -2.459463    0.884742
N      -2.720247   -2.198626    0.471430
C       0.876005   -2.058468    1.231972
H       0.961053    2.108241    0.254007
H      -0.396432    2.084832   -0.880216
H      -0.689114    1.880889    0.849045
H      -0.818182   -0.324208   -0.382931
H       0.825598   -0.104222   -0.959345
H       1.670564   -0.081271    1.379840
H       0.276431   -0.112391    3.297062
H      -1.201568   -0.471508    2.370628
H      -0.258996   -3.900256    1.504356
H       1.790102   -2.604476    1.015916
