19

C      -0.195636    1.463440    0.004780
C       0.014507   -0.032412    0.006190
C      -0.736876   -0.878234    1.004545
C       0.767672   -0.762749    1.102522
C       1.558722   -1.871138    0.438569
O       0.755659   -2.855815   -0.240632
C       1.368499   -1.810012   -1.014795
C       0.393138   -0.680861   -1.347014
O      -0.701780   -1.107056   -2.136544
H       0.692017    1.994081   -0.359609
H      -1.035978    1.734411   -0.644655
H      -0.417734    1.834835    1.010202
H      -1.323605   -0.340614    1.742490
H      -1.145754   -1.837912    0.714124
H       1.221263   -0.241291    1.937848
H       2.458733   -2.260063    0.905911
H       2.094633   -2.144921   -1.751551
H       0.913497    0.068654   -1.954972
H      -1.076812   -1.876722   -1.692387
