19

C      -0.008787    1.543405   -0.025732
C       0.017679    0.030366   -0.008212
C       0.812615   -0.699205   -1.085526
C       0.652869   -1.994785   -0.811979
C      -0.231690   -1.999656    0.414480
C       0.229739   -0.806132    1.322180
C      -1.229931   -0.546855    1.757664
C      -1.288600   -0.823267    0.235004
O      -2.381388   -0.765468   -0.602688
H       1.005761    1.951209    0.042737
H      -0.450512    1.908508   -0.959138
H      -0.591083    1.961977    0.799813
H       1.362655   -0.223856   -1.886233
H       1.032862   -2.861888   -1.333424
H      -0.539160   -2.935564    0.883538
H       1.122429   -0.793882    1.947970
H      -1.680094   -1.303818    2.407464
H      -1.486848    0.458941    2.096787
H      -3.106938   -1.254605   -0.199929
