22

C      -0.038558    1.501269    0.042350
C       0.019190   -0.008549    0.000114
C      -0.850056   -0.815961    0.931343
C       0.653077   -0.848601    1.093435
C       1.485256   -1.928572    0.426753
C       2.857196   -2.178540    1.007396
C       0.798266   -2.965406   -0.388864
N       1.375506   -1.781558   -1.045876
C       0.436670   -0.671910   -1.324045
H       0.907544    1.946429   -0.287095
H      -0.831214    1.888846   -0.608976
H      -0.244509    1.860486    1.055738
H      -1.403997   -0.260864    1.683097
H      -1.378156   -1.689829    0.568749
H       1.080448   -0.383431    1.975519
H       2.784655   -2.638252    1.999588
H       3.431443   -2.845585    0.359735
H       3.416557   -1.241616    1.109591
H       1.310687   -3.897592   -0.618445
H      -0.281388   -3.065980   -0.330966
H      -0.416576   -1.028937   -1.913364
H       0.967953    0.062552   -1.939881
