18

C      -0.149184    1.469223   -0.065891
C       0.089887   -0.005697   -0.031542
N      -0.820390   -0.952362    0.656409
C       0.620783   -0.919997    1.004887
C       1.374706   -1.756335   -0.065078
C       0.454738   -2.277106   -1.135679
C      -0.935861   -2.841560   -0.948729
O      -1.789070   -2.764341   -1.797991
C       0.824473   -0.816331   -1.141321
H       0.762340    2.006225   -0.348949
H      -0.927820    1.723972   -0.794203
H      -0.466274    1.840072    0.914703
H      -1.345154   -0.446444    1.368395
H       0.950482   -0.730153    2.018307
H       2.390993   -2.104515    0.063838
H       0.992300   -2.824251   -1.909746
H      -1.076248   -3.442502   -0.027399
H       1.352721   -0.347560   -1.961694
