11

N       0.042564    1.401670    0.196761
C      -0.084017    0.046698    0.068525
C      -1.126434   -0.840236    0.043601
O      -2.456655   -0.990964    0.054544
N      -2.621480   -2.483621   -0.017505
N      -1.515095   -3.040896   -0.059264
C      -0.502653   -2.089003   -0.027237
N       0.813029   -2.072333   -0.046597
O       1.058970   -0.678591    0.014189
H       0.935472    1.770837   -0.098413
H      -0.744387    1.940276   -0.133113
