22

C      -0.156310    1.528232   -0.133760
C      -0.016913    0.042642    0.076490
O       1.284465   -0.534391   -0.107841
C       0.690758   -0.611966    1.199156
C       1.379224    0.179982    2.291228
C       0.207014   -1.975998    1.630080
C       0.115012   -3.107699    0.669357
N       1.079153   -3.147796    1.765585
C       2.492289   -3.044628    1.410026
H       0.649575    2.091206    0.339734
H      -0.142137    1.756416   -1.204796
H      -1.112991    1.879292    0.268341
H      -0.812165   -0.547153   -0.384403
H       1.708400    1.158048    1.938413
H       0.703400    0.322849    3.141298
H       2.257705   -0.361242    2.655068
H      -0.533618   -1.912833    2.428346
H      -0.704639   -3.819769    0.726302
H       0.499255   -2.915922   -0.330705
H       2.703100   -2.372679    0.568177
H       3.059053   -2.703453    2.282977
H       2.852683   -4.046057    1.153120
