21

C      -0.202203    1.558051   -0.010596
C       0.010934    0.047271    0.000447
C       0.766506   -0.525751   -1.229348
C       1.434433   -1.802142   -0.716919
C       2.629569   -1.692796    0.215149
C       3.101697   -0.317615    0.650417
O       2.028337    0.277685    1.377371
C       0.826344   -0.484436    1.201043
C       1.254746   -1.896273    0.784211
H       0.758152    2.079802    0.021814
H      -0.738480    1.875293   -0.911182
H      -0.787131    1.883374    0.856635
H      -0.964845   -0.456356    0.048276
H       0.083249   -0.743539   -2.055139
H       1.498035    0.197338   -1.611033
H       1.385458   -2.697289   -1.327286
H       3.350323   -2.502583    0.206406
H       3.973786   -0.393849    1.312186
H       3.381916    0.322865   -0.199216
H       0.272266   -0.437553    2.142826
H       0.941633   -2.782359    1.320729
