18

N       0.347304    1.522355   -0.451022
C      -0.039529    0.201288    0.027966
C       0.085164    0.009530    1.580263
C      -1.349142   -0.527516    1.583392
C      -1.813187   -1.792207    2.192098
N      -2.329622   -0.484687    2.653777
C      -1.586762   -0.015572    0.161674
C       0.609282   -0.893425   -0.711113
N       1.142731   -1.722224   -1.317243
H       1.358904    1.624034   -0.412831
H       0.088779    1.624337   -1.429638
H       0.881720   -0.645241    1.938855
H       0.167685    0.994033    2.049744
H      -2.540982   -2.412269    1.675666
H      -1.119632   -2.337980    2.827189
H      -1.888459   -0.219324    3.531497
H      -2.092322    0.953087    0.149885
H      -2.054670   -0.693197   -0.554037
