17

N       0.196604    1.366448    0.071211
C       0.003818   -0.026770    0.043228
C      -1.124334   -0.814471   -0.017178
C      -0.688546   -2.169054   -0.113710
C       0.682011   -2.167384   -0.097779
N       1.104124   -0.852928   -0.021190
C       2.478496   -0.390053   -0.002005
C       2.927356    0.057568    1.319260
C       3.276394    0.449822    2.400150
H       0.627278    1.681302    0.936561
H      -0.683462    1.852029   -0.045148
H      -2.142710   -0.457628    0.010957
H      -1.317081   -3.043922   -0.178627
H       1.400664   -2.970404   -0.125569
H       3.113917   -1.206383   -0.358899
H       2.577694    0.438284   -0.713439
H       3.594710    0.779375    3.358385
