18

C      -0.069466    1.470335   -0.155657
C       0.008239   -0.043906   -0.042338
O       0.974433   -0.689090   -0.401758
N      -1.076728   -0.635165    0.576010
C      -2.523799   -0.428075    0.268443
C      -2.555610   -1.515223   -0.865721
C      -3.744969   -2.248662   -0.214275
C      -2.917050   -1.756510    0.990716
C      -1.561018   -2.003296    0.251256
H       0.940197    1.869844   -0.254494
H      -0.636489    1.745165   -1.052845
H      -0.567716    1.919306    0.707420
H      -3.019768    0.541133    0.308958
H      -2.318535   -1.361571   -1.918858
H      -4.732829   -1.799072   -0.347071
H      -3.793007   -3.330476   -0.364204
H      -3.091391   -1.871784    2.060049
H      -0.919014   -2.880425    0.260161
