17

N       0.015520    1.319070    0.168881
C       0.038115    0.064998   -0.011425
C       1.302803   -0.782109   -0.148530
O       1.193607   -1.871214   -1.043061
C       0.082541   -2.687851   -0.725313
C      -1.201533   -1.883260   -0.866132
N      -1.156624   -0.692390   -0.010827
C      -2.285552   -0.354762    0.731233
O      -2.400414    0.550897    1.510438
H       0.967121    1.690167    0.175910
H       2.119110   -0.155283   -0.513990
H       1.567666   -1.144400    0.861056
H       0.091840   -3.523666   -1.429658
H       0.172762   -3.086323    0.298712
H      -1.325444   -1.589304   -1.916321
H      -2.067011   -2.486361   -0.577195
H      -3.097356   -1.084582    0.530763
