18

C       0.237891    1.532659    0.047790
C      -0.041329    0.056292   -0.053387
N       0.057151   -0.539024   -1.166170
C      -0.228434   -1.947370   -1.420557
C      -1.501992   -2.479723   -0.775628
O      -1.390811   -3.660983    0.032438
C      -1.641274   -2.413274    0.681990
C      -0.491642   -1.803621    1.450365
O      -0.385085   -0.398550    1.196219
H       1.071086    1.714294    0.734217
H       0.475785    1.929876   -0.937397
H      -0.634184    2.052187    0.457813
H      -0.304529   -2.062513   -2.506778
H       0.612035   -2.579084   -1.110607
H      -2.406257   -2.444401   -1.381467
H      -2.632782   -2.314864    1.121666
H      -0.636477   -1.881096    2.530529
H       0.439886   -2.315815    1.193064
