22

C      -0.665852    1.472809    0.111145
C      -0.083945    0.067076   -0.011144
C      -1.156851   -0.930177   -0.464930
C       1.234264   -0.060977   -0.846305
C       1.860671   -0.935974    0.280011
O       3.194546   -0.718299    0.664078
C       0.725591   -0.468525    1.197211
C       0.882631    0.154929    2.531095
N       0.261516   -1.179232    2.381767
H       0.093627    2.196383    0.423137
H      -1.075991    1.807967   -0.848415
H      -1.482537    1.505987    0.842802
H      -1.571087   -0.635047   -1.435345
H      -0.755406   -1.943297   -0.563809
H      -1.988044   -0.971205    0.248998
H       1.152621   -0.507583   -1.840053
H       1.754770    0.898622   -0.932961
H       1.788012   -2.005861    0.065132
H       3.287595    0.214706    0.885529
H       1.854272    0.143601    3.018847
H       0.251982    1.002131    2.787902
H      -0.750709   -1.098541    2.463414
