18

O      -0.030785    1.376362    0.099389
C      -0.028796   -0.005702   -0.006599
C      -0.507946   -0.636222   -1.303581
C      -1.334025   -0.756302   -0.041744
C      -1.402569   -2.062226    0.723640
C      -0.070607   -2.825128    0.677345
N       1.049618   -1.951851    1.004597
C       1.123453   -0.623013    0.732340
O       2.062201    0.080989    1.084736
H       0.856796    1.583915    0.437886
H      -0.846594    0.077805   -2.045331
H       0.003047   -1.503479   -1.707242
H      -2.219553   -0.130278    0.007162
H      -1.659276   -1.850944    1.768607
H      -2.187212   -2.712933    0.320823
H      -0.086623   -3.645198    1.400901
H       0.066104   -3.281261   -0.312658
H       1.857662   -2.335385    1.470915
