22

C       0.066175    1.599774   -0.017772
C       0.029641    0.072382   -0.051819
C       0.840125   -0.560414   -1.202006
C       1.072092   -1.994792   -0.717216
C       1.456332   -1.810365    0.768056
C       1.280178   -3.067446    1.618268
O       2.815790   -1.350453    0.856483
C       0.591641   -0.607572    1.229346
H       1.094155    1.960711    0.101959
H      -0.334352    2.029339   -0.942747
H      -0.525066    1.996284    0.814855
H      -1.015711   -0.242402   -0.173598
H       0.328213   -0.498697   -2.166939
H       1.805442   -0.050816   -1.298984
H       0.144211   -2.576570   -0.791921
H       1.843800   -2.538398   -1.273906
H       1.904485   -3.886720    1.240003
H       1.572731   -2.870969    2.654180
H       0.240901   -3.411580    1.609564
H       3.382555   -2.053831    0.520796
H       1.233029    0.072500    1.796809
H      -0.212245   -0.930038    1.897096
