23

C       0.207843    1.675454   -0.350769
C      -0.026792    0.178468   -0.121397
C       0.846118   -0.370672    1.012187
C       0.757902   -1.864911    1.324675
C      -0.528110   -2.627153    1.126560
C       0.648217   -2.890084    0.217567
C       1.665754   -2.223288    2.465867
O       1.291727   -1.779766    3.778625
C       1.364734   -3.183296    3.535324
H       1.249232    1.875425   -0.626369
H      -0.429305    2.059542   -1.153334
H      -0.010043    2.252500    0.554522
H      -1.086157    0.015031    0.108931
H       0.175652   -0.361919   -1.054208
H       1.897113   -0.133805    0.789004
H       0.608047    0.172913    1.935907
H      -0.805707   -3.393015    1.840660
H      -1.375444   -2.092860    0.713320
H       0.592138   -2.546042   -0.808914
H       1.185717   -3.824470    0.342638
H       2.723834   -2.051726    2.249923
H       0.412679   -3.709335    3.556080
H       2.184935   -3.704541    4.029216
