16

N      -0.067780    1.519901    0.031322
C      -0.049225    0.110362   -0.025635
C       0.649174   -0.822544   -1.036214
N      -0.436405   -1.851173   -0.855364
C      -1.198195   -0.899907   -0.026620
C      -0.352867   -0.732375    1.222455
O       0.482017   -1.761498    1.638850
C      -0.967545   -0.021391    2.319531
N      -1.450266    0.532379    3.211895
H       0.750171    1.902504    0.493017
H      -0.161145    1.946497   -0.883483
H       0.647495   -0.387417   -2.040564
H       1.651439   -1.184824   -0.789228
H      -0.910213   -2.068531   -1.724240
H      -2.277100   -0.809308   -0.047386
H       0.338173   -2.473440    0.991304
