17

C      -0.045296    1.506489   -0.026532
C       0.038266   -0.012721   -0.018286
O       1.112821   -0.583366   -0.033996
C      -1.228476   -0.763553    0.008696
C      -2.496236   -0.248785    0.028030
O      -3.414328   -1.230642    0.049974
C      -2.724910   -2.415182    0.044637
C      -1.385582   -2.205945    0.019715
C      -0.307714   -3.242807    0.006599
H       0.964252    1.917925   -0.041384
H      -0.595882    1.858905   -0.905480
H      -0.575359    1.870794    0.860055
H      -2.882536    0.757671    0.028936
H      -3.332854   -3.304680    0.060584
H       0.324506   -3.143587   -0.880120
H       0.355924   -3.133034    0.868768
H      -0.738405   -4.248116    0.020384
