17

C      -0.536604    1.661309   -0.335656
C       0.030317    0.255851   -0.050298
C      -1.044792   -0.617962    0.573719
O      -1.246185   -1.787519    0.350725
C       0.732696   -0.330788   -1.239059
C       1.500192    0.249084   -2.222661
N       1.980791   -0.697754   -3.094645
C       1.510339   -1.841929   -2.649737
N       0.760121   -1.679970   -1.527419
H       0.265584    2.343797   -0.623097
H      -1.263394    1.629007   -1.151780
H      -1.023651    2.073554    0.553701
H       0.747404    0.371179    0.785120
H      -1.656157   -0.080410    1.332383
H       1.738177    1.294522   -2.349489
H       1.676837   -2.811218   -3.095529
H       0.209454   -2.360848   -1.026380
