15

C       0.122647    1.505891    0.074221
N      -0.240329    0.132280   -0.255672
C       0.578425   -0.482242   -1.277962
C       2.034020   -0.502790   -1.033768
C       3.210207   -0.532878   -0.785396
C       0.151896   -1.948331   -1.451350
O      -0.501417   -2.554152   -0.646109
C       0.632435   -2.592155   -2.687515
N       0.979268   -3.085123   -3.674065
H       1.161299    1.628359    0.417383
H      -0.019588    2.142066   -0.806513
H      -0.549870    1.866042    0.856579
H      -0.248415   -0.459509    0.567726
H       0.397594    0.029436   -2.235334
H       4.252842   -0.551476   -0.580235
