18

C       0.011771    1.521087    0.129522
C       0.005390   -0.009055    0.005104
C       0.714140   -0.486825   -1.262659
N       0.620012   -0.672345    1.160262
C      -0.004464   -0.689245    2.373522
N       0.614144   -0.963939    3.524745
N      -0.421238   -0.916068    4.368489
N      -1.580535   -0.632109    3.818464
N      -1.343205   -0.478986    2.537211
H       1.037886    1.905614    0.164677
H      -0.491607    1.980066   -0.727557
H      -0.509140    1.836403    1.037232
H      -1.034279   -0.349414   -0.018696
H       1.768987   -0.184567   -1.259291
H       0.671711   -1.575808   -1.348075
H       0.249656   -0.047561   -2.149722
H       1.626083   -0.606384    1.220500
H      -0.321725   -1.082507    5.357826
