17

O      -0.487100    1.300281   -0.696804
C      -0.056967    0.094827   -0.089513
C      -1.306009   -0.785892    0.134357
C      -1.199442   -1.917592   -0.872872
C      -1.037647   -1.654709   -2.340136
C      -1.249939   -0.389305   -2.992670
N      -1.414741    0.567139   -3.621997
N       0.136592   -1.953421   -1.483853
C       0.878058   -0.781280   -0.972765
H       0.273893    1.757764   -1.067408
H       0.438838    0.318813    0.865891
H      -1.310892   -1.214420    1.140496
H      -2.207933   -0.180184    0.021563
H      -1.629816   -2.878910   -0.604054
H      -1.269089   -2.482205   -3.007691
H       1.310240   -0.208268   -1.799850
H       1.703791   -1.179880   -0.375349
