21

C       0.171558    1.585295   -0.290418
C      -0.031620    0.088995   -0.179486
C      -1.457189   -0.425577   -0.279212
C      -2.330543   -0.024847    0.921324
C      -3.717006   -0.611696    0.830160
C      -4.911530    0.110133    1.282817
O      -4.607777    0.001913   -0.109309
C       1.081741   -0.811158   -0.516957
O       0.748424   -0.548659    0.848660
H       1.229385    1.836278   -0.182171
H      -0.177689    1.951922   -1.261650
H      -0.382137    2.119848    0.487764
H      -1.918190   -0.055317   -1.202767
H      -1.430003   -1.518926   -0.350109
H      -1.849686   -0.371637    1.844242
H      -2.417376    1.065157    0.986460
H      -3.762212   -1.703183    0.822323
H      -5.789352   -0.442289    1.615590
H      -4.803972    1.107349    1.708358
H       0.875217   -1.823266   -0.863835
H       2.030965   -0.395068   -0.853784
