16

C      -0.193429    1.472369   -0.199380
C      -0.149999    0.023749    0.212874
O       1.072592   -0.705696    0.013035
C       0.613294   -0.522165    1.344939
C       1.488017    0.300346    2.294331
C       2.153134   -0.595539    3.370933
O       1.689834   -1.643062    3.721244
C       2.511883    1.114925    1.644872
N       3.360319    1.756624    1.194480
H       0.702442    2.017952    0.099936
H      -0.284120    1.545395   -1.287683
H      -1.070841    1.959498    0.240079
H      -1.034254   -0.549909   -0.072476
H       0.247084   -1.422238    1.836477
H       0.842069    0.980289    2.873439
H       3.074531   -0.171355    3.817617
