17

C      -0.486140    1.509102   -0.027842
C       0.101545    0.115937   -0.112816
O       1.235485    0.118056   -1.016336
C       2.159867   -0.691893   -0.439101
N       3.273990   -0.892219   -1.202007
N       1.955653   -1.149150    0.736770
C       0.703986   -0.516854    1.193367
C       0.949601    0.438629    2.276365
C       1.145540    1.216629    3.171538
H       0.245872    2.214198    0.371432
H      -0.805904    1.846488   -1.017637
H      -1.357014    1.507930    0.634189
H      -0.633588   -0.582839   -0.530733
H       3.136066   -0.856616   -2.199713
H       3.873367   -1.632546   -0.873379
H       0.020824   -1.286578    1.571172
H       1.328992    1.897306    3.965730
