12

N      -0.030642    1.431473    0.155641
C       0.007554    0.041147    0.040750
C      -1.041010   -0.840169    0.001733
O      -0.593921   -2.125354   -0.025433
C       0.762564   -2.065998   -0.010969
C       1.186701   -0.765881    0.032704
C       1.480001   -3.280799   -0.041447
N       2.090899   -4.265199   -0.067074
H       0.736540    1.893696   -0.313068
H      -0.908048    1.839885   -0.136368
H      -2.110686   -0.714489   -0.002591
H       2.211715   -0.431073    0.060817
