20

C      -0.061656    1.542212    0.093171
C       0.001202    0.015297    0.002285
C       0.721400   -0.477874   -1.256820
C       0.782712   -2.001211   -1.345026
C       1.486349   -2.514030   -2.574945
O       1.969483   -1.809276   -3.433775
C       1.571878   -4.056433   -2.704271
N       2.214557   -4.436611   -3.829922
O       1.099461   -4.796967   -1.862897
H       0.942971    1.979107    0.108544
H      -0.592638    1.967913   -0.765447
H      -0.580354    1.867084    1.000368
H       0.506718   -0.385185    0.891118
H      -1.016676   -0.396293    0.024096
H       0.222191   -0.083910   -2.150334
H       1.740155   -0.072836   -1.286396
H       1.283453   -2.444582   -0.473365
H      -0.217538   -2.455454   -1.327622
H       2.563010   -3.724878   -4.451675
H       2.339386   -5.413083   -4.035012
