21

C       0.693727   -0.047967   -1.246486
C       0.005592    0.104945    0.116752
C       0.050703    1.560466    0.609980
C      -1.429169   -0.395820    0.060099
O      -2.297488    0.349074   -0.762551
C      -1.835924   -1.854454   -0.014310
C      -0.989449   -2.699637    0.927167
O      -1.249813   -1.797792    2.041274
C      -2.140035   -1.031478    1.226167
H       1.721629    0.327339   -1.212893
H       0.726288   -1.096649   -1.558785
H       0.150399    0.511366   -2.014647
H       0.531241   -0.507136    0.857021
H      -0.427781    2.238087   -0.106917
H      -0.449963    1.669757    1.578124
H       1.084682    1.897477    0.729628
H      -2.454536    1.197229   -0.333413
H      -2.492417   -2.212009   -0.795327
H      -1.422049   -3.685781    1.129447
H       0.080914   -2.803956    0.715454
H      -3.066655   -0.673329    1.662386
