18

C      -0.128403    1.522608   -0.091658
O      -0.081337    0.193289   -0.562741
C      -1.152014   -0.576533   -0.233317
C      -2.284996   -0.238653    0.480413
N      -3.078687   -1.368001    0.518340
C      -2.457756   -2.404047   -0.119603
C      -3.138514   -3.725651   -0.243433
O      -3.900887   -3.942277    0.944330
C      -1.255065   -1.944544   -0.610168
H       0.786245    2.012548   -0.430722
H      -0.998958    2.059676   -0.494834
H      -0.173351    1.557355    1.006280
H      -2.584345    0.675124    0.962670
H      -3.909682   -1.491610    1.070049
H      -3.803559   -3.742562   -1.123292
H      -2.383190   -4.510776   -0.393497
H      -4.495568   -4.681021    0.784749
H      -0.530475   -2.502888   -1.181636
