18

C      -0.276520    1.448181   -0.074097
C      -0.034111   -0.056285   -0.033368
C       1.158557   -0.543980   -0.947743
O       1.639819    0.296839   -1.956659
C       1.998716   -0.683976    0.328455
O       3.183052   -0.650924    0.517857
C       0.763886   -0.558058    1.194685
C       0.661911   -0.188119    2.627849
N       0.370170   -1.560719    2.197639
H       0.643611    2.004654    0.128913
H      -0.634117    1.754369   -1.060854
H      -1.022010    1.745259    0.670248
H      -0.960703   -0.607161   -0.218993
H       0.924210   -1.540834   -1.350886
H       2.561990    0.491895   -1.749911
H       1.574115   -0.075159    3.206597
H      -0.158869    0.462250    2.919716
H      -0.637733   -1.698751    2.142463
