18

C      -0.255486    1.510949   -0.453932
C      -0.055738    0.049592   -0.114345
C      -1.301395   -0.819980   -0.055082
C      -2.228193   -0.428927    1.075424
C      -3.430839    0.390186    0.871134
O      -3.527698   -1.021640    1.059757
C       1.246506   -0.582859   -0.372296
O       0.876630   -0.197164    0.953677
H       0.699456    2.041305   -0.437107
H      -0.698949    1.620718   -1.449612
H      -0.925238    1.991189    0.266130
H      -1.846184   -0.766861   -1.005040
H      -0.999370   -1.862965    0.090094
H      -1.759847   -0.407777    2.060114
H      -3.820029    1.000159    1.685314
H      -3.675312    0.744819   -0.129967
H       1.303317   -1.656369   -0.549606
H       2.049278    0.001416   -0.820949
