14

N       0.046435    1.450952   -0.142147
C       0.042978    0.041389   -0.063631
C      -1.060175   -0.764830   -0.014596
O      -2.387476   -0.454178    0.097335
N      -0.633851   -2.095282   -0.074485
C       0.728361   -2.106939   -0.112537
O       1.347002   -3.317211   -0.125396
C       1.196551   -0.816370   -0.128933
H       0.770397    1.853754    0.442377
H      -0.845686    1.822101    0.166234
H      -2.766670   -0.343476   -0.783653
H      -1.210814   -2.894972    0.120079
H       2.296832   -3.166240   -0.123072
H       2.226985   -0.505737   -0.209971
