20

N      -0.370390    1.483221    0.207341
C      -0.088107    0.051974    0.089614
C       0.810041   -0.382914    1.268244
N       0.118197   -0.123285    2.523624
C       0.944214   -0.204865    3.699072
C       1.974093    0.856933    4.040364
C       0.693419    0.730511    4.839873
C       1.142067   -1.812366    1.143325
N       1.415515   -2.928868    1.026999
H       0.404376    2.031373   -0.153435
H      -1.184256    1.729365   -0.344342
H      -1.032200   -0.494501    0.167768
H       0.394407   -0.243040   -0.852700
H       1.768871    0.165957    1.193207
H      -0.311669    0.792971    2.430235
H       1.206326   -1.227774    3.955791
H       2.908028    0.554872    4.501809
H       2.056785    1.709273    3.373212
H      -0.060203    1.499997    4.702801
H       0.742241    0.338995    5.849563
