20

C       0.045755    1.497942    0.039237
C       0.024139   -0.009684    0.005187
C       0.468025   -0.735485   -1.282308
C      -0.734087   -1.676806   -1.089738
C      -0.509081   -2.788348   -0.047263
C      -0.773257   -1.723697    1.028291
C       0.423109   -0.778203    1.281279
O       1.738211   -1.285920    1.282444
N      -1.335410   -0.747085   -0.017681
H       1.079422    1.863505    0.069854
H      -0.438181    1.916278   -0.849032
H      -0.479106    1.879761    0.921226
H       0.346212   -0.090671   -2.157071
H       1.468447   -1.173625   -1.294555
H      -1.342500   -1.913121   -1.965097
H      -1.302573   -3.539065   -0.073948
H       0.463594   -3.287266   -0.032757
H      -1.399940   -1.989254    1.883046
H       0.237278   -0.155157    2.167598
H       1.918074   -1.677383    2.143038
