16

C       0.255074    1.401429   -0.057098
C      -0.010698   -0.070388   -0.000316
C      -1.387009   -0.761958    0.080658
C      -0.723123   -1.804363    1.030058
O      -1.154782   -2.663790    1.736097
C       0.637140   -1.140473    0.885519
N       0.885698   -1.069114   -0.559031
C       2.154147   -0.828943   -1.066907
O       3.181926   -1.263594   -0.609247
H       1.312845    1.620435    0.115992
H      -0.022242    1.813771   -1.033694
H      -0.334740    1.922856    0.702611
H      -2.138379   -0.184293    0.627503
H      -1.805090   -1.127031   -0.858941
H       1.475539   -1.087601    1.569013
H       2.102333   -0.250718   -2.008592
