18

C      -0.051233    1.426298    0.108881
N      -0.008878   -0.012561   -0.055148
C       0.629645   -0.602356   -1.089094
C       1.228650   -0.059125   -2.172430
C       1.730211   -1.135073   -3.020387
O       2.316359   -1.106937   -4.066853
O       1.418015   -2.347733   -2.406270
C       0.733192   -2.113159   -1.182580
C       1.492933   -2.765896   -0.028397
H       0.950940    1.855156    0.242302
H      -0.508970    1.895287   -0.769170
H      -0.656819    1.671467    0.983028
H      -0.269982   -0.583674    0.729939
H       1.349648    0.980910   -2.428757
H      -0.271844   -2.552182   -1.261169
H       2.489466   -2.326136    0.065947
H       0.960477   -2.639558    0.920730
H       1.599157   -3.836993   -0.215822
