21

C       0.086897    1.509074    0.237906
C       0.132348    0.012570    0.042663
C      -0.948845   -0.857188    0.637463
C       0.466303   -0.953912    1.163656
C       1.334785   -2.087939    0.620644
C       1.141812   -1.999739   -0.923954
C       0.787695   -0.525756   -1.225376
C       2.782397   -1.849462    0.993870
O       3.463949   -2.604165    1.638784
H       1.089309    1.948719    0.172035
H      -0.535279    1.989789   -0.526248
H      -0.330460    1.772072    1.214949
H      -1.671327   -0.369234    1.283456
H      -1.361921   -1.681143    0.064094
H       0.658272   -0.596751    2.170567
H       1.055371   -3.070213    1.013966
H       2.025566   -2.338191   -1.472904
H       0.324636   -2.664192   -1.216482
H       0.149046   -0.431886   -2.111082
H       1.696183    0.055312   -1.427111
H       3.200134   -0.885048    0.616141
