20

C       0.046990    1.495673    0.061366
C      -0.067129   -0.025606   -0.021178
C      -1.547813   -0.441350    0.006795
C       0.668310   -0.561510   -1.270488
C       0.975431   -2.054913   -1.139583
O       1.648803   -2.312671    0.084207
C       0.871640   -1.883174    1.170209
O       0.618300   -0.504500    1.155590
H       1.097530    1.791348    0.125114
H      -0.398177    1.964721   -0.821491
H      -0.468414    1.868768    0.951285
H      -2.091825    0.049584   -0.806288
H      -1.690477   -1.518836   -0.107119
H      -1.998754   -0.137787    0.955826
H       0.076397   -0.370476   -2.172753
H       1.616614   -0.023238   -1.372579
H       0.052852   -2.656915   -1.192962
H       1.638497   -2.392914   -1.940474
H      -0.073119   -2.457090    1.197664
H       1.448911   -2.082067    2.076002
