21

C      -0.099871    1.554157    0.072406
C       0.051702    0.058706    0.009689
C      -0.824779   -0.871738    0.806795
C       0.662770   -0.937085    1.007730
C       1.278074   -1.757562   -0.127186
C       0.676070   -0.724553   -1.153574
O      -0.270989   -1.211795   -2.080870
C       1.757639    0.043619   -1.902629
O       2.317763   -0.873281   -2.841632
H       0.833964    2.078773   -0.160374
H      -0.863930    1.905131   -0.631585
H      -0.409808    1.868890    1.074263
H      -1.387782   -0.385862    1.597946
H      -1.347589   -1.689513    0.319084
H       1.128465   -0.727041    1.963205
H       2.369858   -1.777022   -0.140291
H       0.900055   -2.778828   -0.231000
H       0.243594   -1.562261   -2.819908
H       1.302424    0.901184   -2.418477
H       2.520543    0.419977   -1.206034
H       2.853496   -0.381580   -3.469802
