25

C       0.204404    1.480859   -0.082548
C       0.026742   -0.009572    0.219464
C      -1.351586   -0.540105   -0.187175
C      -1.529344   -2.021504    0.115320
O      -2.823846   -2.417675   -0.295539
C      -3.092339   -3.776351   -0.087104
C      -3.414960   -4.281163    1.350913
C      -4.549244   -5.140711    0.726803
C      -4.496955   -4.228905   -0.530365
H       1.195885    1.833997    0.217588
H       0.087669    1.683775   -1.152838
H      -0.539817    2.083358    0.449840
H       0.806526   -0.582841   -0.299416
H       0.184320   -0.186350    1.291798
H      -2.138447    0.019573    0.333610
H      -1.515531   -0.380244   -1.260090
H      -0.764593   -2.616966   -0.413960
H      -1.391888   -2.209914    1.193336
H      -2.305678   -4.397104   -0.546556
H      -2.630955   -4.789562    1.916919
H      -3.818877   -3.459571    1.950258
H      -4.216069   -6.158914    0.507809
H      -5.494819   -5.196276    1.269218
H      -5.193184   -3.389683   -0.447110
H      -4.602948   -4.685782   -1.516624
