19

O      -0.060001    1.091134   -0.976839
C      -0.027494    0.210401    0.158084
C      -1.380428   -0.443712    0.264043
C      -1.871984   -1.243715   -0.940417
O      -1.009353   -1.400895   -2.027271
C      -1.514762   -1.942888    0.327457
C      -0.476659   -3.036778    0.527452
C      -1.601775   -3.717439    1.339782
O      -2.482724   -2.581372    1.155322
H       0.806450    1.501972   -1.063670
H       0.756329   -0.546875    0.022722
H       0.203727    0.771520    1.074068
H      -2.146846    0.119090    0.788769
H      -2.931956   -1.163285   -1.181767
H      -0.661562   -0.518998   -2.222122
H      -0.160597   -3.539858   -0.386789
H       0.401423   -2.753748    1.111965
H      -2.017665   -4.627111    0.892135
H      -1.393545   -3.897103    2.399824
