17

C       0.051459    1.352742   -0.055046
O      -0.000964   -0.059241    0.102791
C      -1.285589   -0.614413    0.028876
C      -2.000965   -0.698479   -1.367668
N      -2.047865   -2.197688   -1.312278
C      -0.643350   -2.631066   -1.235140
C      -1.281436   -2.142376    0.000922
C      -2.168442   -0.071341    1.077043
N      -2.847304    0.377055    1.897913
H       1.106917    1.626757   -0.018824
H      -0.368046    1.666584   -1.020863
H      -0.485324    1.869850    0.750206
H      -3.008183   -0.281769   -1.375799
H      -1.419285   -0.299058   -2.204005
H      -0.527550   -3.706045   -1.327649
H       0.129345   -2.036721   -1.715004
H      -1.527833   -2.772385    0.847203
