13

C      -0.057260    1.504533    0.017334
C      -0.009095    0.001841   -0.007453
C       0.288131   -0.712576   -1.173652
N       0.335454   -2.043841   -1.215255
C       0.080767   -2.675554   -0.068737
C      -0.216278   -1.976693    1.098589
N      -0.262915   -0.645875    1.137327
H       0.164061    1.929887   -0.964513
H      -1.046795    1.849550    0.333349
H       0.664722    1.897687    0.740003
H       0.494158   -0.186146   -2.102926
H       0.113969   -3.761808   -0.079905
H      -0.422010   -2.504593    2.026843
