22

C       0.058035    1.531037   -0.033791
C       0.081445    0.016400    0.160441
N      -1.249942   -0.551762    0.069785
C      -2.178964   -0.319939    1.207420
C      -2.516725   -1.828495    1.242567
C      -2.708741   -2.535294    2.557316
O      -3.513016   -2.202327    0.257049
C      -2.498407   -2.564452   -0.714757
C      -1.387275   -2.019967    0.191981
H       1.069930    1.943838    0.023189
H      -0.373358    1.786334   -1.005821
H      -0.543891    2.018171    0.740774
H       0.695287   -0.446733   -0.621902
H       0.570368   -0.220654    1.128150
H      -1.663973    0.011720    2.123473
H      -3.011924    0.357012    0.993588
H      -3.656242   -2.225578    3.013363
H      -2.744076   -3.619245    2.414084
H      -1.900314   -2.298274    3.255607
H      -2.478119   -3.650731   -0.875907
H      -2.624494   -2.042120   -1.668323
H      -0.466297   -2.589717    0.338649
