16

C       0.072615    0.900253   -0.854744
C      -0.004067   -0.391066   -0.185579
C      -0.055824   -1.451740    0.384716
C      -0.135489   -2.754103    1.055438
N      -0.912765   -3.810495    0.392394
C      -2.116045   -3.433380   -0.340352
C      -0.892261   -3.879693   -1.064258
H       1.055186    1.056119   -1.313538
H      -0.679323    0.981100   -1.647289
H      -0.100412    1.722221   -0.151372
H       0.877612   -3.148244    1.204048
H      -0.565220   -2.621444    2.056201
H      -2.963613   -4.101459   -0.215986
H      -2.362501   -2.376355   -0.411310
H      -0.343195   -3.112763   -1.605916
H      -0.826187   -4.881042   -1.480299
