18

C      -0.035890    1.423131   -0.147380
C       1.374713    2.007688   -0.012455
C       2.095034    1.421079    1.194353
C       2.121085   -0.113470    1.307385
C       1.853549    0.107470    2.834708
C       0.424859    0.311980    2.489312
C       0.603909   -0.428212    1.160285
O      -0.052445    0.006844   -0.001372
N       1.373745    1.482014    2.526247
H      -0.696220    1.881769    0.602834
H      -0.456432    1.629166   -1.135155
H       1.965064    1.778826   -0.908531
H       1.309194    3.098678    0.069055
H       3.078642    1.873435    1.346037
H       2.871518   -0.737300    0.826710
H       2.347621   -0.183273    3.750804
H      -0.441151    0.375190    3.134678
H       0.392707   -1.494252    1.269428
