15

N       0.043836   -1.146080   -0.104762
C       0.040203    0.009238   -0.037687
C       0.015344    1.436816    0.056769
C       0.333190    2.300870   -1.152353
C       1.281616    2.288174    0.008159
C       1.064410    3.357330    1.064999
O      -0.345476    3.411861    1.261494
C      -0.865393    2.099411    1.119423
H       0.636633    1.782824   -2.053818
H      -0.292273    3.174731   -1.302015
H       2.253909    1.822559   -0.091916
H       1.590711    3.083632    1.992564
H       1.387941    4.357167    0.760351
H      -1.915894    2.188682    0.829448
H      -0.802166    1.527556    2.057520
