22

C       0.470336    1.429554    0.100855
C      -0.193403    0.081550   -0.210211
C       0.498013   -0.618297   -1.357565
N       1.693196   -1.398792   -1.064732
C       0.506024   -2.119203   -1.560603
C      -0.169921   -3.112343   -0.635361
C       0.689567   -4.360016   -0.394843
C       0.561395   -2.507443   -3.003181
O       1.367389   -2.063022   -3.788348
H       1.520359    1.286345    0.373161
H       0.435138    2.100153   -0.764674
H      -0.032395    1.931479    0.932769
H      -0.162348   -0.551128    0.681214
H      -1.249951    0.233695   -0.464556
H       0.515140   -0.047333   -2.286411
H       2.348049   -1.320931   -1.844011
H      -0.393460   -2.635167    0.321455
H      -1.136430   -3.397076   -1.072682
H       0.194443   -5.051690    0.292947
H       0.884745   -4.901814   -1.327193
H       1.654128   -4.076262    0.035380
H      -0.206614   -3.243937   -3.325823
