21

C      -0.020734    1.549643   -0.086743
C       0.025171    0.038329   -0.040692
C       1.338316   -0.719027   -0.190148
C       1.396792   -1.994204   -0.998829
O       2.525942    0.034354   -0.209063
C       0.643649   -0.679976    1.133454
C       1.186399   -0.098962    2.433933
O       0.667803   -1.228858    3.175598
C       0.104607   -1.822597    1.986853
H       0.921939    1.978286    0.262702
H      -0.194008    1.907840   -1.107819
H      -0.827498    1.943064    0.540963
H      -0.840384   -0.459097   -0.476333
H       1.541463   -1.774755   -2.064046
H       2.229150   -2.624051   -0.668088
H       0.470163   -2.567868   -0.903896
H       2.651226    0.373219   -1.102796
H       2.277522   -0.022569    2.499738
H       0.736234    0.846367    2.764311
H      -0.990147   -1.898802    2.043730
H       0.521826   -2.818822    1.786614
