23

C       0.443378    1.394125    0.281071
C      -0.050339   -0.024295   -0.041961
C      -1.584804   -0.093532   -0.044102
C       0.560478   -0.582340   -1.332492
C       0.123508    0.126045   -2.622972
C       0.950446   -0.251778   -3.832487
O       0.640374   -1.098978   -4.631945
C       1.958973   -1.151983   -1.221660
C       0.775429   -2.074740   -1.395180
H       1.536846    1.443437    0.282975
H       0.074182    2.128642   -0.443187
H       0.088984    1.710119    1.267586
H       0.305991   -0.681428    0.763510
H      -2.017064    0.586986   -0.785803
H      -1.937043   -1.104817   -0.270926
H      -1.986351    0.193412    0.933041
H      -0.919754   -0.120468   -2.843917
H       0.204997    1.212239   -2.490779
H       1.904514    0.311590   -3.946857
H       2.652139   -1.048811   -2.048934
H       2.438595   -1.113568   -0.248991
H       0.461068   -2.668709   -0.543354
H       0.654520   -2.567893   -2.353703
