20

C      -0.016041    1.551742    0.011672
C      -0.027953    0.011015    0.046867
C       0.756823   -0.516335    1.263977
C      -1.428374   -0.537062    0.006266
C      -1.983338   -1.313913   -0.930840
C      -3.397733   -1.631259   -0.582361
O      -4.204077   -2.304704   -1.189549
N      -3.613167   -0.980271    0.615476
C      -2.456269   -0.262393    1.090451
H       1.012625    1.922473   -0.037115
H      -0.558010    1.933393   -0.858469
H      -0.476509    1.975818    0.910620
H       0.477085   -0.348251   -0.858081
H       0.765958   -1.609905    1.287194
H       1.793404   -0.166812    1.227763
H       0.322234   -0.160896    2.204615
H      -1.519168   -1.688520   -1.832726
H      -4.495358   -1.027105    1.094969
H      -2.113069   -0.625667    2.070039
H      -2.648941    0.814981    1.197156
