13

C      -0.002630    1.425194    0.051274
N       0.124885   -0.020106    0.033781
C       0.648174   -0.609303   -0.967611
C       0.791643   -2.059349   -0.974864
N       1.159097   -2.718870   -2.019480
N       1.406235   -1.943034   -3.103953
N       1.518315   -0.603565   -3.129695
N       1.165987    0.065213   -2.118635
H       0.533940    1.810378    0.926780
H       0.366846    1.930333   -0.845908
H      -1.058805    1.678860    0.201193
H       0.591752   -2.621353   -0.068111
H       1.795535   -2.411215   -3.906865
