21

C       0.080320    1.540723    0.043524
C      -0.068491    0.019519   -0.073902
C       0.726009   -0.568606   -1.210010
C       2.275597   -0.497826   -1.348244
C       1.978950   -1.548777   -2.446596
O       3.019140   -2.316956   -2.955049
C       0.845377   -2.086757   -1.508918
C       1.141995   -0.692942   -3.417064
O       0.271203   -0.035522   -2.482903
H       1.118408    1.821924    0.249643
H      -0.221383    2.028596   -0.886546
H      -0.539406    1.931782    0.855718
H       0.247248   -0.467344    0.856076
H      -1.123174   -0.241801   -0.225096
H       2.717377    0.454006   -1.651211
H       2.803065   -0.928016   -0.495171
H       2.658745   -2.928630   -3.606696
H       1.242159   -2.664426   -0.672421
H      -0.023174   -2.575673   -1.958630
H       1.747984    0.034501   -3.970723
H       0.559858   -1.291618   -4.131239
