11

O       0.002551    1.417129    0.009361
C      -0.005479    0.019164    0.001973
C      -1.440341   -0.461596    0.013140
O      -2.417218    0.237492    0.026234
C      -1.602792   -1.993675    0.006552
O      -0.672116   -2.757717   -0.006514
C      -2.998466   -2.463758    0.017581
N      -4.075913   -2.882387    0.025805
H       0.917494    1.713401    0.001257
H       0.481549   -0.421951   -0.884667
H       0.498352   -0.431316    0.874415
