15

C      -0.336902    1.489270    0.243290
C       0.232468    0.102865   -0.059865
N       0.779803   -0.552053    1.119373
C       0.115493   -1.132155    2.157177
C       1.130942   -1.529969    2.997059
O       1.028927   -2.168289    4.177842
N       2.321314   -1.186620    2.457426
N       2.102419   -0.586968    1.309880
H       0.437765    2.138823    0.659131
H      -0.714988    1.944347   -0.676822
H      -1.161841    1.433555    0.959389
H      -0.533723   -0.550514   -0.489089
H       1.059614    0.166937   -0.769553
H      -0.955458   -1.215156    2.205908
H       1.930631   -2.301075    4.497116
