21

C      -0.198162    1.487469   -0.018882
C       0.081335   -0.025084    0.076946
C       0.669089   -0.531825   -1.166253
N       1.145630   -0.929222   -2.141787
C       0.966738   -0.433505    1.291530
C       2.333409    0.250317    1.305393
N       0.229688   -0.098274    2.508700
C      -0.716399   -1.097511    3.000702
C       0.572838   -0.858057    3.705222
H       0.707702    2.045290   -0.266611
H      -0.940331    1.689614   -0.794815
H      -0.577089    1.839975    0.941997
H      -0.878146   -0.542337    0.204663
H       1.124279   -1.524994    1.217048
H       2.940387   -0.139167    2.127527
H       2.869670    0.064942    0.370615
H       2.230800    1.329011    1.448187
H      -1.648103   -0.710959    3.402802
H      -0.809448   -2.030978    2.447074
H       1.333141   -1.632631    3.616668
H       0.602612   -0.294283    4.632835
