16

C      -0.148669    1.252149   -0.372875
C       1.273404    1.007428    0.016879
N       0.285352   -0.046183    0.133071
C      -0.114239   -0.515149    1.384053
C      -1.461917   -0.856976    1.612781
N      -1.871268   -1.370764    2.762661
C      -0.934778   -1.560042    3.703028
C       0.392347   -1.222607    3.478750
N       0.812249   -0.693473    2.325029
H      -0.749014    1.873597    0.287893
H      -0.438800    1.276386   -1.419040
H       2.028978    0.858163   -0.748457
H       1.631994    1.451429    0.941035
H      -2.204041   -0.703364    0.833274
H      -1.257482   -1.985809    4.648229
H       1.145272   -1.373960    4.248463
