17

O      -0.004880    1.288967    0.102401
C       0.016834   -0.095492   -0.006455
C      -0.431784   -0.804948   -1.277489
C      -0.290840   -2.232181   -0.798230
C      -0.587298   -2.331979    0.706612
C      -0.377612   -0.889828    1.218193
C       1.066073   -0.918901    0.732225
C       0.834650   -2.368838    0.217428
O       1.726598   -3.416030    0.287682
H       0.710498    1.643111   -0.437218
H      -1.459940   -0.536355   -1.543383
H       0.220454   -0.577868   -2.130637
H      -0.524491   -3.088630   -1.419086
H      -1.195959   -3.106998    1.150725
H      -0.783374   -0.435633    2.111107
H       1.951081   -0.512359    1.202427
H       2.294931   -3.384807   -0.490654
