15

O      -0.142370    1.358559    0.020544
N      -0.019626   -0.025942   -0.155822
C      -1.111702   -0.625944    0.142134
C      -2.483260   -0.111188    0.285480
C      -3.264506   -1.199815    0.505582
N      -3.818817   -1.839490   -0.720838
C      -2.623103   -2.779232   -0.471844
C      -2.464619   -2.434910    0.953009
C      -1.278263   -2.116172    0.083306
H       0.701850    1.682600   -0.311520
H      -2.797160    0.744479   -0.300686
H      -4.617896   -2.433873   -0.477633
H      -2.582032   -3.734627   -0.987676
H      -2.504125   -3.002214    1.874477
H      -0.411889   -2.770303    0.042288
