15

O      -0.044195    0.041447   -0.396659
C      -0.014058    1.174226   -0.030582
O      -1.125734    1.851219    0.374200
C      -0.803127    3.157457    0.813939
C       0.027889    3.254291    2.057109
C       0.677176    3.381059    0.693515
C       1.228287    2.109872    0.063919
C       2.335321    1.476550    0.764098
C       3.247631    0.967232    1.355934
H      -1.564193    3.879490    0.549402
H      -0.055869    4.159698    2.647423
H       0.194281    2.347456    2.629494
H       1.086837    4.333190    0.383063
H       1.527844    2.313213   -0.972894
H       4.054435    0.507492    1.871232
