21

C      -0.067918    1.570800   -0.069753
C       0.024281    0.039592   -0.017755
C       0.725885   -0.506180   -1.263655
O      -0.041389   -0.140583   -2.400090
C       0.739260   -0.468694    1.240164
N       0.018228   -0.106933    2.458353
C       0.675331   -0.605154    3.659539
C      -0.036135   -0.178840    4.868048
N      -0.581039    0.175473    5.822712
H       0.924391    2.027973    0.033903
H      -0.485853    1.885479   -1.027951
H      -0.712467    1.969362    0.719832
H      -0.992233   -0.372619   -0.012022
H       1.747450   -0.094115   -1.324438
H       0.817360   -1.601707   -1.186189
H       0.432779   -0.419362   -3.188412
H       0.797116   -1.564959    1.207775
H       1.784734   -0.100590    1.244888
H      -0.070074    0.901466    2.522578
H       0.680085   -1.702278    3.631741
H       1.732005   -0.293374    3.761638
