21

C      -0.179552    1.547097   -0.023552
C       0.123153    0.053503   -0.010966
C       1.091032   -0.595380   -1.061415
C       1.844046   -1.296196    0.089681
C       2.323897   -2.719086    0.040412
C       2.465798   -0.277727    1.031059
C       3.121276    0.988919    0.626848
O       4.032993    1.488366    1.245128
C       0.965572   -0.579615    1.103453
H       0.724753    2.160803   -0.001426
H      -0.743949    1.819215   -0.922433
H      -0.786742    1.825069    0.844977
H      -0.828128   -0.488556   -0.051582
H       0.581813   -1.307320   -1.715562
H       1.672292    0.083646   -1.690950
H       3.182349   -2.825485   -0.633269
H       2.634247   -3.068618    1.030139
H       1.533928   -3.387566   -0.321135
H       2.997164   -0.735695    1.862336
H       2.754371    1.462254   -0.306951
H       0.574282   -0.948277    2.045980
