17

C       0.399076    1.326654    0.065428
N       0.150890   -0.104094    0.077261
N       0.010460   -0.739136   -1.104308
C      -0.189454   -2.016215   -0.792157
C      -0.186863   -2.214191    0.598793
C       0.041848   -0.957821    1.135916
C       0.165654   -0.615933    2.566891
C       1.156118    0.311848    3.141545
O      -0.216448    0.691437    3.024080
H       1.471491    1.539197   -0.009941
H      -0.099336    1.743208   -0.810054
H      -0.003201    1.768981    0.975721
H      -0.340360   -2.741821   -1.577745
H      -0.336645   -3.130150    1.148001
H      -0.180593   -1.421623    3.213162
H       1.510614    0.151493    4.158530
H       1.846455    0.837754    2.484919
