23

C      -0.118205    1.496717    0.076416
C      -0.028811   -0.030751   -0.016877
C      -1.396869   -0.624966   -0.336956
C       1.147524   -0.478731   -0.941657
C       2.032822   -0.684661    0.313399
C       0.763602   -0.639903    1.196652
C       0.776285   -0.052597    2.620448
O       0.429318   -1.322325    3.207257
C       0.310521   -1.935755    1.909086
H       0.849871    1.949201    0.316770
H      -0.451760    1.917040   -0.878985
H      -0.833473    1.811363    0.844090
H      -1.785002   -0.205656   -1.272579
H      -1.351909   -1.711811   -0.458521
H      -2.127473   -0.404531    0.450425
H       0.928848   -1.420301   -1.453914
H       1.491045    0.246404   -1.684445
H       2.628395   -1.600312    0.363053
H       2.696767    0.163842    0.505012
H       1.749918    0.313596    2.973089
H       0.015923    0.712869    2.826833
H      -0.718283   -2.261167    1.709785
H       0.982309   -2.797471    1.797350
