20

C       0.107809    1.544122    0.146233
C      -0.054820    0.025434   -0.026175
C       0.695077   -0.498267   -1.228417
N       0.228504   -0.133277   -2.429974
C       0.873012   -0.560654   -3.515407
C       2.010964   -1.370312   -3.500611
C       2.680292   -1.814714   -4.775044
C       2.486424   -1.743083   -2.242456
C       1.827915   -1.306943   -1.100904
H       1.154820    1.811088    0.324369
H      -0.224316    2.062071   -0.757356
H      -0.483630    1.907246    0.992313
H       0.285675   -0.494400    0.875879
H      -1.117950   -0.207903   -0.153698
H       0.457295   -0.241725   -4.470604
H       3.722951   -1.480401   -4.818247
H       2.689183   -2.906939   -4.863863
H       2.165266   -1.413802   -5.652373
H       3.367401   -2.373818   -2.157839
H       2.184587   -1.590023   -0.115985
