20

C       0.027496    1.392183   -0.311315
O       0.013110    0.098027    0.267251
C      -1.216706   -0.558197    0.142911
C      -1.533256   -1.272182   -1.196348
O      -1.671426   -2.538182   -0.519887
C      -1.210713   -1.978028    0.727879
C       1.400193    1.982324   -0.146471
C       1.542462    3.446410    0.052160
N       1.825592    2.514930    1.154523
H      -0.235124    1.339337   -1.380938
H      -0.724035    2.036196    0.179004
H      -2.037737    0.077573    0.504246
H      -2.451582   -0.985011   -1.721054
H      -0.687898   -1.264497   -1.897831
H      -0.201478   -2.316403    0.993606
H      -1.900132   -2.184352    1.553594
H       2.185335    1.444762   -0.673338
H       2.409107    3.966407   -0.345123
H       0.635601    4.045781    0.088839
H       1.045459    2.492513    1.807583
