23

O       0.187947    1.347990    0.208138
C       0.097980   -0.046340    0.030589
C       1.051019   -0.582353   -0.994138
C       1.283339   -0.866939    0.478595
C      -1.304980   -0.614023    0.133564
C      -1.990997   -0.415004    1.500055
C      -3.468987   -0.695551    1.195702
C      -3.701896   -0.038150   -0.186005
C      -2.307096    0.008111   -0.873875
H       0.072727    1.533043    1.146319
H       0.721540   -1.394012   -1.633563
H       1.706721    0.138109   -1.468665
H       2.096675   -0.335108    0.959722
H       1.114280   -1.873530    0.846513
H      -1.235913   -1.694528   -0.049186
H      -1.576065   -1.053436    2.285957
H      -1.875313    0.628598    1.824608
H      -3.626063   -1.779150    1.130615
H      -4.148262   -0.319671    1.966266
H      -4.440308   -0.587753   -0.776350
H      -4.096010    0.975413   -0.060760
H      -2.009949    1.040481   -1.076363
H      -2.294479   -0.522744   -1.829630
