20

C       0.259691    1.524475    0.322307
C       0.136462    0.024336    0.053794
C       0.664157   -0.359167   -1.326290
O       0.656524    0.407163   -2.272445
N       1.120280   -1.648605   -1.431456
C       1.670667   -2.187990   -2.664783
C       3.125269   -2.634267   -2.533512
C       0.756964   -3.297008   -3.178780
O       1.137337   -4.343206   -3.634676
H       1.308629    1.829667    0.380135
H      -0.204499    2.090023   -0.487878
H      -0.225755    1.789649    1.265372
H       0.644691   -0.559957    0.830131
H      -0.919156   -0.276822    0.085936
H       1.160450   -2.219140   -0.601612
H       1.585918   -1.361421   -3.384362
H       3.760283   -1.786959   -2.264810
H       3.231306   -3.410009   -1.767966
H       3.473512   -3.059740   -3.476990
H      -0.326256   -3.054351   -3.089130
