14

N      -0.039947    1.216355   -0.231741
C      -0.078280   -0.011492    0.075485
N       1.150028   -0.738230    0.371896
N       1.220884   -1.972581    0.168304
N       0.071874   -2.542794   -0.343588
C      -0.444364   -3.915625   -0.093322
C      -1.866306   -3.265859    0.054867
C      -1.137753   -1.939504   -0.037890
N      -1.295397   -0.706629    0.228234
H       0.935354    1.522865   -0.242350
H      -0.289428   -4.593133   -0.933265
H      -0.053538   -4.348619    0.829080
H      -2.552432   -3.465761   -0.769513
H      -2.370844   -3.443690    1.005525
