18

C      -0.144923    1.592910   -0.055876
C      -0.023913    0.073326   -0.004453
C      -1.385799   -0.581432   -0.212715
C       1.198020   -0.653770   -0.669074
C       2.169474   -0.082341    0.390218
C       0.889998   -0.606483    1.093291
O       0.975594   -1.810939    0.241669
C       0.626074   -0.762837    2.503231
N       0.396036   -0.836838    3.633644
H       0.796131    2.127256    0.077182
H      -0.565479    1.896016   -1.020727
H      -0.836824    1.937357    0.719902
H      -1.796930   -0.290207   -1.185437
H      -1.316942   -1.667649   -0.171331
H      -2.091743   -0.243136    0.553211
H       1.378794   -0.881330   -1.718732
H       3.045223   -0.704206    0.570651
H       2.393892    0.982258    0.411722
