15

O       0.109882    0.211557    0.473770
C       0.096216    1.362761    0.121453
N       1.147100    1.984541   -0.553010
C       2.528936    1.824164   -0.169728
C       3.395585    2.319502   -1.334151
C       2.683259    3.715509   -1.252702
C       1.843104    3.183466   -0.076050
C       1.399605    3.904497    1.072256
N       1.046224    4.516619    1.988822
H      -0.779845    2.028200    0.216987
H       2.782139    1.142265    0.632359
H       4.452749    2.381674   -1.072476
H       3.278053    1.759002   -2.262866
H       3.360399    4.514492   -0.948872
H       2.100165    4.030577   -2.119007
