18

O       0.258353    0.139994    0.710329
C       0.183706    1.289774    0.337208
N       1.130700    1.934387   -0.421787
C       2.621096    1.729814   -0.269934
C       2.784938    2.963762   -1.206802
C       1.677473    3.327360   -0.175783
C       2.587553    2.722668    0.916388
C       2.425173    2.542096    2.380205
C       3.635132    3.286819    1.810309
H      -0.719136    1.918116    0.487008
H       3.071594    0.742191   -0.335744
H       3.721435    3.514343   -1.123191
H       2.447912    2.826457   -2.234380
H       1.030728    4.203894   -0.138057
H       1.672415    3.128733    2.897331
H       2.586590    1.555247    2.800180
H       4.600213    2.792575    1.859062
H       3.678608    4.362265    1.950447
