19

C       0.569845    1.313196    0.008629
C       0.049876   -0.073327    0.200529
C      -1.368792   -0.622318   -0.041715
C      -1.090750   -1.712893    1.050722
C       0.316797   -1.114405    1.220918
O       0.944413   -1.173229   -0.064888
C       1.179260   -1.131090    2.428943
C       2.560392   -1.636266    2.386523
O       2.291229   -0.234065    2.442901
H       1.565011    1.400254    0.448142
H       0.630108    1.557291   -1.058410
H      -0.093789    2.043722    0.482546
H      -2.158008    0.074294    0.251673
H      -1.555978   -0.979267   -1.057252
H      -1.723038   -1.592576    1.934201
H      -1.111073   -2.755566    0.725346
H       0.633779   -1.187673    3.371853
H       3.007409   -2.061947    3.283556
H       2.951963   -1.991241    1.436405
