21

O      -0.003293    1.462875    0.232223
C      -0.071792    0.048747    0.348447
C      -1.377248   -0.522371   -0.216795
C      -1.465071   -2.023605   -0.072944
O      -0.461405   -2.611824   -0.875682
C      -1.750412   -2.756927    1.211308
C      -2.821689   -2.063252    2.060405
C      -3.818314   -2.141345    0.856174
C      -2.737526   -2.824587    0.014202
H       0.042416    1.675841   -0.705201
H       0.785864   -0.440571   -0.132057
H      -0.008584   -0.163585    1.421247
H      -2.218874   -0.033998    0.280856
H      -1.449796   -0.276733   -1.285049
H      -0.457469   -3.561889   -0.718537
H      -1.052874   -3.504376    1.576761
H      -3.150302   -2.675728    2.902718
H      -2.572264   -1.066819    2.438567
H      -4.661361   -2.802341    1.068919
H      -4.214007   -1.196538    0.470111
H      -2.908529   -3.628777   -0.694319
