22

C       0.056687    1.574864    0.063145
C       0.006906    0.050481   -0.047249
C      -1.415942   -0.533903   -0.002561
C      -1.396044   -2.069096   -0.124876
O      -0.746608   -2.671906    0.974733
N      -2.049209   -0.229792    1.274561
C      -3.062788    0.515650    1.285840
O      -3.696003    0.798717    2.438758
C      -4.820545    1.664894    2.328406
H       1.086526    1.938486   -0.005701
H      -0.516754    2.053530   -0.740050
H      -0.354625    1.916033    1.017614
H       0.466682   -0.268089   -0.991084
H       0.589405   -0.410428    0.756268
H      -1.995985   -0.127157   -0.851519
H      -2.433467   -2.429297   -0.224772
H      -0.850377   -2.367169   -1.027091
H      -1.108714   -2.231158    1.755431
H      -3.505332    0.982736    0.392296
H      -5.594405    1.237041    1.679897
H      -5.221127    1.776421    3.336359
H      -4.530811    2.650856    1.945841
