16

C       0.120269    1.589287    0.093230
C      -0.030686    0.105088   -0.042572
C      -0.931726   -0.741505    0.798811
N       0.505119   -0.944641    0.952259
C       0.902137   -1.851126   -0.200877
C       0.309794   -3.166233   -0.255016
C      -0.200280   -4.253492   -0.318156
C       0.452959   -0.722118   -1.191072
O       0.670024   -0.502685   -2.344441
H       1.109478    1.916572   -0.239767
H      -0.628869    2.103067   -0.517963
H      -0.017140    1.896614    1.133324
H      -1.390434   -0.236063    1.643757
H      -1.534466   -1.530292    0.357076
H       1.995614   -1.909741   -0.232616
H      -0.639390   -5.219227   -0.371695
