16

C      -0.120451    1.574079   -0.094354
C      -0.033239    0.057513   -0.025755
C       1.233588   -0.642606   -0.619252
N       1.999418   -0.111804    0.590088
C       0.698462   -0.593892    1.201714
C       0.408691   -0.525871    2.654225
O       1.246343   -0.303194    3.492980
C       0.893986   -1.853185    0.261480
O       0.953097   -3.037728    0.306075
H       0.824624    2.038963    0.188120
H      -0.377619    1.888803   -1.110898
H      -0.906364    1.942404    0.572439
H      -0.976999   -0.424008   -0.294063
H       1.638608   -0.580362   -1.627512
H       2.782168   -0.716586    0.849853
H      -0.651118   -0.732832    2.921300
