14

C       0.301920    1.418575    0.021494
N      -0.018333   -0.006140    0.012446
C      -0.374399   -0.664107   -1.116342
N      -0.673092   -1.913908   -1.220057
C      -0.632686   -2.682374   -0.073832
O      -0.876903   -3.844019    0.008033
O      -0.262561   -2.025343    1.134250
C       0.047822   -0.708856    1.221227
N       0.377127   -0.115829    2.286171
H       1.322598    1.570373    0.377507
H       0.199651    1.801907   -0.994899
H      -0.376105    1.950234    0.691719
H      -0.401628   -0.045154   -2.011432
H       0.376552   -0.765772    3.069650
