20

C      -0.500180    1.085721   -0.201709
C       0.141676   -0.197207    0.311446
C       1.237300   -0.924858   -0.517609
N       2.196736   -0.951479    0.645643
C       2.451887    0.466930    0.957832
C       1.185817   -0.125900    1.437233
C       0.893259   -0.390327    2.893433
C       0.200752   -1.724184    3.102175
O      -0.830687   -1.875740    3.704882
H       0.249238    1.830618   -0.487279
H      -1.119945    0.884215   -1.082051
H      -1.145524    1.534771    0.561019
H      -0.645150   -0.907919    0.584940
H       0.976301   -1.940898   -0.818987
H       1.630024   -0.385114   -1.386638
H       3.242459    0.607508    1.689122
H       2.457166    1.191112    0.146045
H       1.841113   -0.423399    3.447522
H       0.272507    0.401619    3.325970
H       0.734399   -2.584230    2.639738
