23

C      -0.890376    0.985123   -0.039082
C       0.014848   -0.242560   -0.152695
C       1.081095   -0.138017   -1.241051
C       2.329047    0.654882   -0.929145
C       2.329656   -0.845771   -0.765757
C       2.050548   -1.397377    0.624997
C       0.820635   -0.620297    1.106048
C       0.943924    0.307384    2.294214
C       0.154771   -0.974154    2.405271
H      -0.307160    1.896155    0.126747
H      -1.463562    1.122418   -0.961759
H      -1.611119    0.886755    0.780523
H      -0.619369   -1.105867   -0.405557
H       0.759136   -0.200806   -2.275378
H       2.878385    1.060264   -1.771987
H       2.352264    1.280196   -0.042833
H       2.930722   -1.438718   -1.446386
H       1.819337   -2.468470    0.548434
H       2.897433   -1.299233    1.314152
H       1.905557    0.361392    2.794818
H       0.394016    1.241739    2.294329
H      -0.926839   -0.897957    2.465417
H       0.572008   -1.789385    2.988105
