21

O       0.035976    1.407074   -0.039944
C      -0.022438    0.011655    0.213150
C      -1.377359   -0.495678   -0.271540
C      -1.506878   -1.998640   -0.119343
C      -1.942404   -2.704336    1.148905
C      -2.734804   -1.917718    2.177402
O      -3.775556   -1.251480    1.465761
C      -4.077358   -1.986738    0.281506
C      -2.818024   -2.750337   -0.084722
H       0.881987    1.735375    0.277634
H       0.786401   -0.522462   -0.313893
H       0.094009   -0.206387    1.287197
H      -2.166904    0.024966    0.274717
H      -1.483798   -0.222030   -1.328695
H      -0.729678   -2.544941   -0.652122
H      -1.393730   -3.574624    1.490851
H      -3.147798   -2.606947    2.931890
H      -2.161696   -1.145376    2.702896
H      -4.902798   -2.696015    0.454598
H      -4.404747   -1.261465   -0.471712
H      -2.926979   -3.653976   -0.673708
