17

C      -0.071995    1.566152    0.034529
C       0.040096    0.069645    0.015110
C      -0.838830   -0.841103    0.827407
C       0.650357   -0.896780    1.035841
C       1.281884   -1.738955   -0.091036
C       0.663820   -0.734909   -1.136562
C       2.735620   -1.764930   -0.089325
N       3.891943   -1.778085   -0.082407
H       0.878869    2.041113   -0.231273
H      -0.829588    1.915135   -0.677505
H      -0.361839    1.926987    1.026618
H      -1.391889   -0.358030    1.626790
H      -1.363126   -1.677007    0.367700
H       1.120035   -0.698587    1.991086
H       0.912563   -2.768310   -0.152919
H      -0.026043   -1.172200   -1.864718
H       1.442357   -0.184812   -1.667920
