19

C      -0.079039    1.538737   -0.002015
C       1.472984    1.525995   -0.071309
C       1.433601    0.098375    0.539485
C      -0.050226   -0.011676    0.093530
N       2.392111   -0.897102    0.110115
C       3.226565   -1.636175    0.924439
C       3.949700   -2.443254    0.088131
N       3.589313   -2.225524   -1.221147
C       2.659220   -1.298558   -1.169353
H      -0.442641    1.997870    0.921022
H      -0.614802    1.979194   -0.844101
H       1.828554    1.500044   -1.104749
H       2.030343    2.291150    0.473129
H       1.498358    0.150976    1.628486
H      -0.744461   -0.509994    0.773413
H      -0.129178   -0.476271   -0.892887
H       3.217337   -1.512100    1.995036
H       4.707018   -3.165835    0.351914
H       2.144820   -0.879982   -2.021228
