21

C       0.007259    1.615860   -0.031748
C      -0.027972    0.104228   -0.030134
C       1.239027   -0.696823   -0.225764
C       0.548687   -0.699505    1.115401
N       1.188550    0.015528    2.183007
C       0.611227   -0.075527    3.520067
C       1.928227   -0.710379    3.219744
C       2.095808   -2.213855    3.214759
H       0.884517    1.980792    0.506472
H       0.038113    2.005665   -1.055255
H      -0.880539    2.033134    0.456925
H      -0.921963   -0.326956   -0.474041
H       1.213089   -1.597970   -0.828718
H       2.167687   -0.138659   -0.282367
H       0.000648   -1.605225    1.381442
H       0.544918    0.853565    4.081035
H      -0.235336   -0.748036    3.659898
H       2.822410   -0.174364    3.537134
H       1.163605   -2.737220    2.989189
H       2.845513   -2.524945    2.479167
H       2.435840   -2.552868    4.199129
