16

O      -0.034800    0.052654    0.004742
C      -0.019036    1.251322    0.011101
C      -1.281451    2.143636    0.032772
N      -0.726127    3.473932    0.032118
C      -1.247389    4.740179    0.044910
C      -0.183151    5.617361    0.034758
C       1.020886    4.853998    0.015161
C       0.651421    3.529477    0.013916
C       1.230438    2.153728   -0.000533
H      -1.901625    1.935723   -0.847325
H      -1.877571    1.926548    0.927174
H      -2.311495    4.911598    0.059967
H      -0.258816    6.694037    0.040805
H       2.028861    5.238731    0.003528
H       1.853629    1.912148    0.869310
H       1.831086    1.921023   -0.888437
