15

N      -0.044311    1.174033    0.343482
C       0.001887   -0.052324    0.065457
O       1.149581   -0.780172   -0.099166
C       0.886732   -2.049568   -0.707692
C      -0.618081   -2.307980   -0.580527
O      -0.918096   -3.215234    0.504890
C      -1.605126   -2.478437    1.414862
N      -1.846065   -1.255460    1.191285
C      -1.212090   -0.956394   -0.107691
H       0.896558    1.563564    0.424825
H       1.193161   -2.009263   -1.759335
H       1.472334   -2.814338   -0.192816
H      -1.049458   -2.727775   -1.490075
H      -1.911256   -3.029222    2.296868
H      -1.935956   -0.497292   -0.782253
