23

C      -0.239896    1.463996    0.123250
C       0.100074   -0.008019   -0.032547
O       0.620006   -0.488941    1.194171
C       0.966800   -1.868550    1.165164
C       1.596792   -2.248400    2.483356
C       2.850635   -1.465447    2.835665
O       2.584849   -0.124372    3.201516
C       0.688327   -2.664575    3.612531
C       1.513353   -3.700320    2.891603
H       0.654099    2.043668    0.371385
H      -0.657454    1.857382   -0.808250
H      -0.974445    1.606321    0.920771
H      -0.797489   -0.586644   -0.306097
H       0.837406   -0.155553   -0.838948
H       0.068396   -2.477146    0.972033
H       1.672710   -2.051819    0.336779
H       3.348777   -1.930431    3.693964
H       3.556175   -1.516239    1.987001
H       1.950665    0.206387    2.551961
H       0.979044   -2.379119    4.617245
H      -0.382321   -2.652298    3.438280
H       1.004671   -4.392906    2.228611
H       2.367523   -4.129420    3.404419
