18

O       0.127600    1.329456    0.595807
C       0.105470   -0.005964    0.185767
C      -1.299472   -0.487935   -0.125272
N      -2.239360    0.351920   -0.079056
C      -3.661052    0.134871   -0.192827
C      -4.242720   -1.146482   -0.717776
C      -3.617613   -2.209440   -1.211287
C      -2.138853   -2.391813   -1.376454
O      -1.291283   -1.820317   -0.374465
H      -0.793294    1.625126    0.496687
H       0.720019   -0.162259   -0.716747
H       0.523266   -0.666795    0.960616
H      -4.083194    0.317615    0.808050
H      -4.070608    0.956356   -0.800842
H      -5.331559   -1.159046   -0.690974
H      -4.212723   -3.041448   -1.580535
H      -1.891373   -3.456653   -1.355812
H      -1.817745   -2.007678   -2.356298
