18

O      -0.065357    1.442099    0.001726
C       0.057666    0.025746    0.060529
C      -1.349465   -0.552394   -0.049301
C      -2.043868   -0.313108   -1.373578
C      -2.769702   -1.368505   -1.745369
C      -2.682270   -2.485903   -0.728517
C      -1.427523   -2.099180    0.092779
O      -0.262774   -2.745271   -0.412488
H       0.819186    1.818888    0.004738
H       0.688999   -0.352364   -0.755372
H       0.519119   -0.298858    1.005856
H      -1.941225   -0.087842    0.754167
H      -1.962339    0.628121   -1.903646
H      -3.384752   -1.427618   -2.636573
H      -3.582326   -2.514224   -0.098222
H      -2.566397   -3.485922   -1.160463
H      -1.490348   -2.414745    1.137169
H      -0.224843   -2.562675   -1.358776
