22

C       0.718048    1.413404   -0.452020
C       0.050838    0.107746    0.004102
C       0.234098   -1.030933   -1.019516
C       1.622872   -1.632633   -0.730032
O       2.558417   -1.013804   -1.615868
C       1.905797   -1.297809    0.761908
C       0.669677   -0.522403    1.280865
C       0.965828    0.427976    2.440165
H       1.778673    1.267116   -0.673434
H       0.243818    1.777364   -1.369637
H       0.622794    2.200286    0.302618
H      -1.014423    0.308350    0.170012
H      -0.529687   -1.799616   -0.856147
H       0.163572   -0.707787   -2.061482
H       1.625001   -2.717806   -0.904676
H       3.435923   -1.337729   -1.388687
H       2.106684   -2.190705    1.362274
H       2.801691   -0.668052    0.812553
H      -0.057042   -1.266035    1.637198
H       1.715057    1.177149    2.164137
H       0.063452    0.959425    2.762308
H       1.352301   -0.120458    3.306184
