20

C      -0.169659    1.311647    0.266699
O      -0.059683   -0.092636    0.209759
C      -1.273545   -0.731689   -0.090522
C      -1.018240   -2.237367   -0.190778
C      -0.619855   -2.872200    1.185448
C      -2.090803   -3.328983    1.376550
C      -2.350731   -3.061271   -0.130150
C      -0.136617   -2.535525   -1.313511
N       0.543605   -2.809198   -2.207667
H       0.820904    1.704583    0.505143
H      -0.498729    1.732299   -0.695590
H      -0.878923    1.633295    1.045527
H      -2.021917   -0.544296    0.698518
H      -1.694296   -0.360939   -1.039783
H       0.066354   -3.710980    1.057429
H      -0.194626   -2.173045    1.906467
H      -2.243863   -4.352772    1.721395
H      -2.660095   -2.660654    2.026908
H      -3.257090   -2.516162   -0.405779
H      -2.288480   -3.966346   -0.736390
