16

C      -0.076659    1.445503   -0.078001
C      -0.009015   -0.005952   -0.063836
C       0.037712   -1.210322   -0.057047
C       0.044510   -2.660992   -0.077478
O      -0.818393   -3.327020   -0.620382
N       1.119441   -3.213668    0.574739
C       1.289453   -4.643659    0.694648
C       2.480541   -5.156513   -0.103242
O       3.183567   -6.066061    0.247069
H       0.853451    1.878587   -0.461214
H      -0.899122    1.794935   -0.710464
H      -0.236475    1.838828    0.931695
H       1.772369   -2.592659    1.024754
H       1.389663   -4.963838    1.736618
H       0.382175   -5.096839    0.275510
H       2.647059   -4.612040   -1.060716
