19

O       0.256837    1.278395   -0.325343
C       0.085666   -0.059531    0.103418
C      -1.374697   -0.515102    0.053270
C      -2.216978    0.111951    1.155524
O      -2.228165    1.528941    0.969332
C      -2.069920   -0.423945   -1.360183
C      -2.260742   -1.943833   -1.316643
O      -0.959757   -2.534975   -1.185486
C      -1.599799   -2.048034   -0.006099
H      -0.403984    1.802278    0.145740
H       0.672797   -0.685781   -0.573652
H       0.479774   -0.212176    1.124594
H      -3.242366   -0.288865    1.125561
H      -1.785670   -0.145970    2.135610
H      -2.668283    1.936543    1.720997
H      -3.003042    0.142457   -1.328219
H      -1.444289   -0.051527   -2.172716
H      -3.032966   -2.557579   -1.765556
H      -1.732846   -2.747265    0.813053
