17

C      -0.070554    1.528331   -0.014339
C      -0.012543    0.074724    0.028438
C       0.037766   -1.127443    0.084160
C       0.109149   -2.583267    0.093828
C      -1.308022   -3.219693    0.003573
C      -1.309538   -4.712320    0.276426
O      -2.172313   -5.274023    0.899429
C       0.956054   -3.046082   -1.099002
O       1.851214   -3.843052   -1.027014
H       0.745934    1.939006   -0.617960
H      -1.014217    1.876353   -0.447840
H       0.012291    1.955031    0.990982
H       0.612080   -2.940412    1.000178
H      -1.992627   -2.732005    0.701002
H      -1.707658   -3.057507   -1.008181
H      -0.449898   -5.274810   -0.150402
H       0.656406   -2.578102   -2.063381
