20

C      -0.059447    1.561336    0.018738
C       0.021988    0.028390    0.038342
C       0.858450   -0.456078    1.231272
C      -1.398623   -0.560868    0.034803
C      -1.470723   -2.111026   -0.094184
C      -2.852795   -2.589058   -0.035465
C      -3.995280   -2.950583    0.031251
C      -0.812028   -2.570356   -1.329350
N      -0.275370   -2.910925   -2.293948
H       0.940454    2.004457   -0.019598
H      -0.619898    1.921209   -0.850085
H      -0.556869    1.941250    0.919175
H       0.522389   -0.294151   -0.884186
H       0.377293   -0.194013    2.181504
H       1.015935   -1.539319    1.220503
H       1.848202    0.010621    1.221707
H      -1.918181   -0.296478    0.962882
H      -1.978692   -0.130566   -0.787635
H      -0.915919   -2.556445    0.741653
H      -5.003075   -3.282165    0.085029
