17

N      -0.076708    1.337556    0.427710
C      -0.069204   -0.007088    0.027173
C      -1.031600   -0.699208   -0.641466
O      -0.665853   -2.027030   -0.753529
C       0.537377   -2.152498   -0.155891
C       0.961626   -0.958992    0.349636
N       1.131590   -3.405970   -0.245198
C       1.826457   -3.926435    0.926702
C       0.533871   -4.524169    0.491129
H       0.838238    1.764971    0.357544
H      -0.740641    1.895976   -0.093360
H      -1.986408   -0.437788   -1.062944
H       1.883711   -0.770939    0.876036
H       2.764545   -4.432509    0.721336
H       1.812561   -3.318457    1.828074
H      -0.344467   -4.313406    1.094829
H       0.516046   -5.467544   -0.044747
