15

C       0.378717    1.587180    0.047869
C      -0.566420    0.411738   -0.090219
O      -1.383613    0.127877    0.753687
C      -0.427364   -0.389591   -1.363244
N      -0.446847   -1.852084   -1.225861
C      -1.565023   -1.214074   -1.917677
C      -2.904252   -1.311839   -1.245319
O      -3.928078   -1.057343   -1.829224
H       1.419425    1.245231    0.002382
H       0.237632    2.285237   -0.785888
H       0.198464    2.100472    0.992375
H       0.242550    0.035348   -2.108278
H       0.196819   -2.275406   -1.889123
H      -1.622071   -1.249311   -3.004010
H      -2.872240   -1.657414   -0.197841
