19

C      -0.007220    1.496658   -0.107183
O       1.447776    1.524303    0.045070
C       1.394657    0.259592    0.717065
C       2.268737   -0.997983    0.683095
C       1.371919   -1.381262    1.921663
C       1.314548    0.134628    2.252348
C      -0.061467   -1.821530    1.521530
O      -0.824750   -0.734415    0.969504
C       0.026296   -0.027001    0.107480
H      -0.508230    2.050411    0.695627
H      -0.322343    1.873003   -1.083321
H       2.222184   -1.618691   -0.216538
H       3.307975   -0.849139    0.988786
H       1.801049   -2.069547    2.650644
H       2.229876    0.485639    2.733922
H       0.432006    0.520655    2.764808
H      -0.020815   -2.655725    0.803176
H      -0.616679   -2.155509    2.402614
H       0.125813   -0.542202   -0.860310
