12

C      -0.035088    1.399579    0.044503
O       0.028238   -0.037284   -0.047977
C       0.629628   -0.537894   -1.100055
N       1.150042    0.187492   -2.025765
C       1.753063   -0.468376   -3.078222
O       2.282307    0.037311   -4.016373
O       1.735634   -1.881525   -3.028465
N       1.141948   -2.578728   -1.974182
N       0.611553   -1.948154   -1.049145
H       0.972622    1.819118    0.066464
H      -0.575498    1.807399   -0.812018
H      -0.564288    1.599889    0.974380
