18

O      -0.083449    1.413264   -0.025580
C       0.049680    0.003605    0.054273
C      -1.355891   -0.579239   -0.058184
C      -1.389672   -2.122385    0.000878
C      -2.840770   -2.615454    0.193975
C      -2.940627   -4.069656    0.308111
N      -3.000406   -5.220279    0.394392
C      -0.791908   -2.678637   -1.284594
O       0.369342   -2.953118   -1.428749
H       0.796919    1.799864   -0.016021
H       0.691408   -0.389980   -0.746276
H       0.498836   -0.305407    1.012038
H      -1.966012   -0.173792    0.757157
H      -1.811493   -0.225357   -0.992186
H      -0.766762   -2.472223    0.830537
H      -3.266510   -2.162361    1.095186
H      -3.464863   -2.287437   -0.646639
H      -1.516561   -2.773037   -2.128040
