15

O      -0.148700    1.327815    0.023748
N      -0.007877   -0.062344   -0.009984
C      -1.138334   -0.638377   -0.015626
C      -2.520375   -0.023210    0.023081
C      -3.416044   -1.234408    0.051296
C      -2.744277   -2.382741    0.019199
C      -1.238816   -2.168229   -0.030590
C      -0.619372   -2.782666   -1.210392
N      -0.150065   -3.285955   -2.138543
H       0.766511    1.629475    0.011681
H      -2.636391    0.625384    0.901092
H      -2.693527    0.623330   -0.847360
H      -4.495802   -1.154519    0.096521
H      -3.169866   -3.377726    0.021364
H      -0.742931   -2.591471    0.853417
