21

C      -0.230159    1.562310    0.112849
C       0.001275    0.059956    0.031587
C       1.180682   -0.544277   -0.791224
C       2.149362   -0.091561    0.336716
C       0.910698   -0.694702    1.077489
C       0.684172   -0.820916    2.560524
C       1.000694   -1.865563    0.046630
C      -0.154568   -2.788374   -0.210314
O      -1.207564   -2.788852    0.381906
H       0.677726    2.146929    0.280024
H      -0.688172    1.924659   -0.814328
H      -0.926261    1.792640    0.927024
H      -0.955766   -0.437796   -0.134766
H       1.344792   -0.485475   -1.868333
H       3.086267   -0.649367    0.426114
H       2.326917    0.978441    0.443583
H       0.641302    0.165197    3.035913
H      -0.258200   -1.339979    2.758797
H       1.492238   -1.386289    3.038111
H       1.918759   -2.467240    0.088496
H       0.037268   -3.536441   -1.016268
