24

C      -0.720752    1.397352   -1.137528
C      -0.133570    0.130306   -0.505737
C      -1.100998   -0.509780    0.464418
N      -2.205147   -1.311396   -0.086497
C      -1.202451   -1.963538    0.773383
C      -0.307720   -3.052410    0.182640
C      -0.619515   -3.411228   -1.271721
O       1.038423   -2.620274    0.377200
C       2.002932   -3.642728    0.308118
H      -0.013170    1.859386   -1.832876
H      -1.636330    1.162815   -1.689807
H      -0.972136    2.144110   -0.375247
H       0.142460   -0.582760   -1.285091
H       0.791556    0.366265    0.033064
H      -1.355972    0.142604    1.301843
H      -3.068619   -1.153795    0.424489
H      -1.506995   -2.180449    1.796021
H      -0.460645   -3.962180    0.789148
H       0.018071   -4.232481   -1.611435
H      -1.661557   -3.729024   -1.358159
H      -0.479935   -2.558502   -1.938187
H       2.959991   -3.201663    0.599285
H       1.770199   -4.468529    0.999979
H       2.109373   -4.063908   -0.702230
