21

C      -0.371591    1.395666    0.005560
C       0.135633   -0.030841   -0.052296
O       1.376537   -0.134576   -0.798924
C       2.040160   -0.785554    0.298765
C       0.804777   -0.668837    1.199307
C       0.786166    0.044056    2.574950
C      -0.300084   -0.959350    3.048525
C       0.124507   -1.880744    1.873334
O      -0.859678   -2.511411    1.090127
H       0.372363    2.067387    0.443778
H      -0.590095    1.747708   -1.007665
H      -1.295191    1.459140    0.591737
H      -0.625753   -0.689308   -0.486104
H       2.335952   -1.815488    0.053531
H       2.928680   -0.231774    0.631932
H       1.734319   -0.087437    3.105486
H       0.529333    1.104702    2.588082
H      -0.234827   -1.354416    4.065186
H      -1.308529   -0.572637    2.875822
H       0.889960   -2.600959    2.202882
H      -1.204000   -3.265801    1.578067
