16

C       0.008290    1.515270    0.049556
C       0.047119    0.016489    0.064393
N       0.871072   -0.727274   -0.960189
C       0.819864   -1.870942   -0.025028
C      -0.667579   -2.127876    0.463851
O      -0.328656   -1.676303    1.814847
C       0.709203   -0.912206    1.170356
C      -1.257692   -0.800550   -0.053290
O      -2.342688   -0.496024   -0.457717
H       1.016961    1.932785   -0.007202
H      -0.569022    1.876183   -0.808026
H      -0.478958    1.889848    0.955277
H       0.399020   -0.865699   -1.855586
H       1.513369   -2.701001   -0.146017
H      -1.224781   -3.059409    0.413567
H       1.499602   -0.538863    1.817899
