17

C       0.010566    1.519206   -0.014633
C       1.542741    1.713591   -0.016171
C       1.926749    0.650001    1.053725
C       1.011571   -0.329377    1.092114
C       0.089085   -0.003952   -0.061033
O      -0.820891   -0.706860   -0.883082
C       0.568262   -0.565036   -1.325810
C       1.306710    0.422536   -2.167933
C       1.935778    1.387013   -1.469610
H      -0.455155    1.856671    0.916168
H      -0.492044    1.958130   -0.875515
H       1.891613    2.712144    0.253838
H       2.826225    0.713644    1.652787
H       1.015522   -1.225751    1.697347
H       1.060613   -1.537704   -1.277458
H       1.522416    0.236840   -3.216469
H       2.666621    2.029816   -1.953345
