15

C       0.110837    1.461047    0.003068
C      -0.074378   -0.010323   -0.001018
C      -1.135021   -0.833630   -0.137779
C      -0.635366   -2.190544   -0.059215
C      -1.331018   -3.410344   -0.163208
N      -1.873996   -4.432560   -0.250708
C       0.723130   -2.067794    0.132730
N       1.709832   -2.988271    0.351962
O       1.078828   -0.773639    0.168834
H       0.777830    1.788188   -0.803125
H      -0.855745    1.950331   -0.135045
H       0.540821    1.812942    0.947961
H      -2.162298   -0.541897   -0.285165
H       1.469670   -3.932624    0.087455
H       2.634374   -2.707111    0.059086
