19

C      -1.779022   -0.175312    0.372993
C      -0.373095   -0.712728    0.189153
O       0.319101   -1.000191    1.143968
C       0.140615   -0.916716   -1.214480
C      -0.682742   -0.418526   -2.402020
C      -0.733695    1.037534   -2.520017
C      -0.764615    2.236134   -2.607080
C       1.653270   -0.912671   -1.353672
C       0.927267   -2.214327   -1.401116
H      -1.895185    0.790658   -0.128058
H      -2.510926   -0.858788   -0.073794
H      -1.984200   -0.074123    1.438870
H      -0.249248   -0.830242   -3.321416
H      -1.703787   -0.817419   -2.353928
H      -0.791322    3.294383   -2.691307
H       2.055955   -0.502544   -2.273249
H       2.207420   -0.684118   -0.451593
H       0.994799   -2.856937   -0.531423
H       0.817679   -2.723504   -2.352679
