17

C       0.004011    1.541229    0.007076
C      -0.018558    0.005327   -0.014516
C       0.763627   -0.590906   -1.209892
N       2.127799   -0.730945   -0.678461
C       2.021273   -1.221617    0.695233
C       0.740911   -0.555479    1.200840
O       0.387836   -0.466572    2.344855
C       0.183222   -1.877313   -1.655015
N      -0.225704   -2.902700   -1.999557
H       1.027160    1.916294   -0.088565
H      -0.593137    1.948608   -0.813726
H      -0.410632    1.902276    0.951434
H      -1.050609   -0.350950    0.017953
H       0.768735    0.087037   -2.069189
H       2.712470   -1.310231   -1.268331
H       1.895142   -2.314179    0.786183
H       2.882060   -0.928520    1.301912
