15

O       0.262602    1.320677    0.165710
C       0.156409   -0.010412    0.001319
N       0.172433   -0.664549   -1.127047
C       0.030675   -1.992496   -0.754870
C      -0.069643   -2.110663    0.598402
N       0.019268   -0.808041    1.095712
C      -0.063373   -0.390487    2.475519
C      -1.487678   -0.448137    3.026938
O      -1.736663   -0.549715    4.196755
H       0.374493    1.694206   -0.717453
H       0.011799   -2.777956   -1.494059
H      -0.177920   -2.955273    1.258042
H       0.589744   -0.995406    3.111311
H       0.278147    0.648225    2.539999
H      -2.281107   -0.372807    2.250017
