19

C       0.162914    0.779598    1.287085
C      -0.030808   -0.062953    0.037203
C       0.701351    0.350968   -1.192163
N       1.101530   -0.860046   -0.460147
C      -1.366384   -0.764878   -0.041732
C      -2.560296   -0.005718   -0.546602
N      -2.016492   -1.109735   -1.322411
C      -1.640169   -1.818452    0.990570
O      -0.973204   -2.025829    1.972149
H       1.139972    1.273580    1.268533
H      -0.604428    1.558088    1.359336
H       0.102330    0.153968    2.179736
H       0.313512    0.174269   -2.192581
H       1.314958    1.245682   -1.117311
H       1.930519   -0.685050    0.102298
H      -3.544939   -0.176410   -0.118896
H      -2.369902    1.016381   -0.865416
H      -1.458157   -0.774229   -2.101168
H      -2.548791   -2.416255    0.757875
