14

N       0.109231    1.363190    0.158285
C      -0.031729   -0.017117    0.046707
C      -1.210545   -0.695436    0.022981
C      -1.230450   -2.138671   -0.005436
N      -2.310079   -2.840138   -0.024078
C       0.135144   -2.694877   -0.026960
F       0.224857   -4.019904   -0.056961
N       1.241810   -2.057331   -0.010284
N       1.155719   -0.703103   -0.003339
H       0.786599    1.763727   -0.479248
H      -0.772036    1.852858    0.091306
H      -2.153710   -0.164289    0.009771
H      -2.075634   -3.832784   -0.056693
H       2.019972   -0.241609    0.228145
