16

O       0.351183    1.035075    0.765474
C       0.012060    0.094772   -0.238093
C      -1.410267   -0.422281   -0.137268
C      -2.058638   -0.483345    1.098797
C      -3.355433   -0.982846    1.188115
C      -4.024598   -1.430962    0.052132
C      -3.366232   -1.362754   -1.167580
F      -3.996489   -1.781517   -2.271837
C      -2.077426   -0.863212   -1.281493
H      -0.253880    1.780113    0.683409
H       0.186009    0.498083   -1.247772
H       0.718612   -0.733596   -0.104784
H      -1.537672   -0.134280    1.982459
H      -3.852548   -1.026024    2.151537
H      -5.034046   -1.821951    0.095029
H      -1.611005   -0.820715   -2.260227
