17

C       0.164219    1.351101    0.190688
O      -0.294201    0.083822   -0.231209
C       0.472053   -0.479767   -1.263460
C       1.738537   -1.281242   -0.888859
C       0.913959   -2.498159   -0.371327
O       1.618884   -3.473560   -1.192950
C       1.500900   -2.302913   -2.049577
C       0.066707   -1.924070   -1.583047
O      -1.096642   -2.389288   -2.134927
H       1.177742    1.300908    0.614608
H       0.171913    2.073992   -0.639284
H      -0.523725    1.705861    0.961648
H       0.567108    0.211503   -2.113983
H       2.704650   -0.952580   -0.516822
H       0.622027   -2.770997    0.640225
H       1.925917   -2.331522   -3.051445
H      -1.832240   -2.042610   -1.616434
