14

N      -0.071380    1.248147    0.478908
C      -0.008097    0.088805   -0.004076
O       1.162303   -0.555961   -0.294213
C       1.086086   -1.859295   -0.834449
C       0.013100   -2.139416   -1.917534
O       0.038653   -3.554850   -1.519220
C       0.045104   -2.838820   -0.234686
C      -1.039447   -1.888451   -0.806150
O      -1.151027   -0.591760   -0.265122
H       0.866552    1.618325    0.614924
H       2.095579   -2.227348   -1.006613
H      -0.003896   -1.895563   -2.978084
H       0.065785   -3.418481    0.686229
H      -2.039720   -2.289814   -0.953932
