15

C       0.043087   -1.211763   -0.017242
C       0.057287   -0.010539    0.016665
C       0.044084    1.421772    0.060014
C       0.441977    2.236676    1.277688
C       1.629724    1.595181    2.000082
N       2.401163    1.504137    0.710086
C       1.324632    2.252350    0.030745
C       1.568215    3.270180   -0.936231
N       1.779570    4.101599   -1.713761
H       0.042128   -2.272979   -0.057052
H      -0.761550    1.894156   -0.496818
H      -0.211853    3.002245    1.673734
H       2.085444    2.280463    2.719381
H       1.454373    0.623761    2.470171
H       3.250166    2.058021    0.754487
