20

C      -0.076691    1.501604   -0.148145
N      -0.019352    0.052419   -0.023691
C      -1.338933   -0.566655    0.087978
C      -1.409634   -1.911832   -0.635353
C      -0.647168   -3.086410   -0.039567
O      -1.016098   -4.221785   -0.281154
C       0.535963   -2.898756    0.830880
C       1.145629   -1.788043    1.264054
C       0.900289   -0.330495    1.027400
H       0.929825    1.896534   -0.321300
H      -0.696456    1.776498   -1.006074
H      -0.485926    2.007011    0.747676
H      -1.658571   -0.668632    1.140809
H      -2.063778    0.101152   -0.386735
H      -2.448364   -2.243173   -0.731753
H      -1.027040   -1.768199   -1.653836
H       0.924051   -3.855865    1.170180
H       1.981663   -1.939159    1.946842
H       1.874617    0.128679    0.807505
H       0.604246    0.098556    2.013255
