21

C      -0.004773    1.562360   -0.078178
C      -0.116152    0.114423   -0.543640
C      -1.376302   -0.544681   -0.042484
C      -1.418207   -1.953813    0.364682
O      -1.400478   -0.912776    1.342055
O       1.181700    2.110059   -0.625709
C       1.400374    3.433889   -0.253584
C       2.064349    3.728895    1.068091
C       2.820811    3.893076   -0.236655
H      -0.882141    2.142032   -0.412808
H       0.017361    1.607452    1.020407
H      -0.100572    0.090020   -1.640119
H       0.757071   -0.443722   -0.190504
H      -2.310297   -0.095562   -0.387563
H      -2.349765   -2.513637    0.292382
H      -0.511071   -2.554162    0.304796
H       0.635133    4.129160   -0.603015
H       1.766759    4.614813    1.618221
H       2.328173    2.876290    1.683864
H       3.569522    3.144735   -0.469644
H       3.047456    4.891888   -0.591936
