19

O      -0.150830    1.324109   -0.750964
C       0.021530    0.135783    0.007525
C      -1.328204   -0.509949    0.172453
C      -1.921230   -1.362961   -0.940009
C      -1.466656   -1.983728    0.353071
C      -0.329853   -3.008725    0.444939
O      -0.891607   -4.078591    1.201576
C      -2.277766   -3.828461    1.284169
O      -2.433468   -2.430704    1.276339
H       0.693684    1.783580   -0.783167
H       0.712029   -0.560034   -0.498054
H       0.451266    0.356262    0.997739
H      -2.043184    0.085800    0.732430
H      -2.988493   -1.287086   -1.113040
H      -1.318106   -1.525308   -1.828665
H      -0.012296   -3.354053   -0.547385
H       0.547062   -2.634390    0.984942
H      -2.806536   -4.283377    0.426763
H      -2.662852   -4.227780    2.226157
