15

C      -0.017892    1.562576    0.024389
C      -0.014197    0.033710    0.079941
C      -1.412207   -0.568962   -0.075405
C      -1.387178   -2.094335   -0.163047
N      -2.550368   -2.708944    0.210459
O      -0.416813   -2.722128   -0.539871
H       0.993825    1.963498    0.139039
H      -0.412317    1.925271   -0.931779
H      -0.636922    1.993144    0.819944
H       0.625870   -0.380070   -0.704567
H       0.418600   -0.304725    1.028708
H      -2.070381   -0.249280    0.742448
H      -1.875875   -0.198362   -1.001007
H      -3.381092   -2.189616    0.433272
H      -2.627016   -3.702941    0.068505
