19

C      -0.878506    1.207510    0.007472
C      -0.019709   -0.041669   -0.068371
N       1.287087    0.145779   -0.764859
C       2.005548   -0.635631    0.268311
C       3.261211   -0.044309    0.737145
N       4.245927    0.404074    1.143841
C       0.764780   -0.499302    1.172408
C       0.725219    0.078912    2.552095
C       0.351773   -1.367641    2.315409
H      -0.306060    2.042281    0.420042
H      -1.229054    1.492426   -0.990034
H      -1.761462    1.036884    0.633851
H      -0.606045   -0.874987   -0.485668
H       1.348316   -0.240798   -1.700327
H       2.202398   -1.682886   -0.003109
H       1.671732    0.293392    3.037517
H      -0.067839    0.782181    2.782731
H      -0.694934   -1.647146    2.386427
H       1.041464   -2.136095    2.650278
