17

O       0.183324    1.327306    0.180492
C       0.058817   -0.056443    0.122716
C      -0.347746   -0.703715   -1.172239
C      -1.297348   -0.716871    0.024831
C      -1.198788   -1.942990    0.868268
C       0.008324   -2.071882    1.427012
C       0.891174   -0.880257    1.106384
C       2.294340   -1.176481    0.614936
O       2.832125   -0.560952   -0.271549
H       1.005135    1.546462   -0.276191
H      -0.589826   -0.008088   -1.968558
H       0.099621   -1.640183   -1.487147
H      -2.212692   -0.139838   -0.029666
H      -2.012242   -2.651750    0.973784
H       0.338038   -2.898268    2.045726
H       1.047064   -0.283311    2.024029
H       2.832686   -1.987379    1.155625
