20

C      -0.186093    1.549451    0.064965
C       0.181306    0.068390   -0.084146
C       0.835281   -0.496763    1.170516
C      -0.061911   -0.865954    2.394089
N      -0.546498   -2.059776    1.573275
C       0.972296   -2.052989    1.319845
C       1.656650   -3.041744    0.428123
C       1.074908   -1.805343    2.843852
O       1.590845   -2.250781    3.823532
H       0.692448    2.158422    0.306319
H      -0.618126    1.941477   -0.860734
H      -0.921109    1.697648    0.863174
H      -0.707095   -0.518383   -0.329275
H       0.882387   -0.048354   -0.920966
H       1.741865    0.058070    1.433756
H      -0.750616   -0.241373    2.959106
H      -0.813007   -2.839034    2.182674
H       1.254492   -3.000040   -0.588620
H       2.729510   -2.829537    0.384738
H       1.532966   -4.061465    0.806736
