17

C      -0.009332   -1.282829   -0.036426
C      -0.012830   -0.079728   -0.015697
C       0.001029    1.367426    0.028819
C      -0.214082    2.116360    1.381280
C       0.968885    1.748584    2.302856
C       2.119781    1.768538    1.294991
C       1.726853    3.030392    2.032528
C       0.711562    3.287103    0.878246
C       1.355057    2.143597    0.007159
H      -0.011062   -2.344240   -0.058831
H      -0.670296    1.788410   -0.729457
H      -1.204850    2.253763    1.811156
H       0.976172    1.119881    3.182409
H       3.002873    1.155018    1.407578
H       2.289401    3.681150    2.687795
H       0.353988    4.236437    0.488741
H       1.908948    2.307815   -0.915628
