19

C       0.048012    1.419818    0.273798
N      -0.033032   -0.029509    0.388263
C      -1.055418   -0.619906   -0.017629
O      -2.223059   -0.119468   -0.586703
C      -2.810643   -1.456439   -0.684881
C      -2.855812   -1.987826   -2.110264
C      -1.394029   -2.438044   -2.369364
N      -0.860909   -2.897582   -1.074177
C      -1.512322   -2.074778   -0.067262
H       0.913327    1.680565   -0.345754
H      -0.845843    1.888469   -0.154291
H       0.228380    1.846038    1.266772
H      -3.750050   -1.499462   -0.132040
H      -3.534493   -2.848473   -2.145781
H      -3.216403   -1.239753   -2.820852
H      -1.306778   -3.224849   -3.121354
H      -0.796629   -1.586022   -2.712286
H      -1.114447   -3.868230   -0.921694
H      -1.562527   -2.572088    0.901231
