16

C       0.071328    1.496544    0.010456
C       0.062531   -0.012019   -0.041216
C       0.813555   -0.759345   -1.056532
O       1.287834   -0.684712    0.296477
C      -1.112025   -0.758535    0.571374
O      -1.738358   -1.602470   -0.027663
C      -1.446634   -0.462421    2.055494
N      -2.459809   -1.235793    2.501974
O      -0.846944    0.370600    2.707009
H       0.978576    1.872700   -0.469318
H      -0.794994    1.902973   -0.523616
H       0.038895    1.839928    1.044721
H       0.460911   -1.736107   -1.376966
H       1.405675   -0.204225   -1.781745
H      -2.864766   -1.917546    1.881194
H      -2.753661   -1.168447    3.461497
