23

C       0.136605    1.505325   -0.083322
C       0.022039   -0.022268   -0.118379
C      -1.415173   -0.551732    0.060779
C      -2.277069   -0.331220   -1.197803
C      -3.787551   -0.445084   -0.965660
C      -1.408391   -2.056140    0.450289
O      -0.788886   -2.867938   -0.547461
C      -0.810654   -2.280598    1.770730
C      -0.294575   -2.459971    2.842210
H       1.177573    1.820734   -0.205234
H      -0.444052    1.982144   -0.879166
H      -0.221346    1.903253    0.872581
H       0.426718   -0.397114   -1.067554
H       0.653488   -0.434575    0.678276
H      -1.873589   -0.016500    0.904579
H      -2.062140    0.662592   -1.604961
H      -1.958677   -1.053286   -1.958636
H      -4.081452   -1.441066   -0.618500
H      -4.129710    0.279892   -0.218530
H      -4.338479   -0.252684   -1.891557
H      -2.444919   -2.409651    0.483652
H       0.163623   -2.749121   -0.467494
H       0.147384   -2.629443    3.793045
