13

O      -0.156570    1.319602   -0.026967
C       0.076602    0.002404   -0.050689
N      -0.022264   -0.684930   -1.191100
N       0.215828   -1.933794   -0.694802
C       0.716244   -3.299168   -0.943204
C       0.958797   -3.357953    0.625239
C       0.493424   -1.909916    0.600783
N       0.412983   -0.686674    1.095322
H      -0.024090    1.602728    0.885968
H      -0.029159   -3.981838   -1.356875
H       1.632328   -3.327577   -1.537874
H       0.326769   -4.062932    1.168558
H       2.002692   -3.506519    0.908152
