19

C       0.186086    1.535503    0.090611
C       0.003260    0.046256   -0.022150
C      -0.051754   -0.590411   -1.195014
C      -0.242955   -2.078180   -1.341137
C      -0.796450   -2.774911   -0.099526
O      -1.508436   -3.751851   -0.190809
C      -0.455713   -2.180369    1.220451
C       0.964722   -1.753267    1.552008
C      -0.073852   -0.703528    1.264877
H       1.089617    1.781960    0.662548
H       0.263752    2.005895   -0.892643
H      -0.655527    1.996258    0.623517
H       0.057652   -0.024443   -2.116841
H      -0.914943   -2.320090   -2.170382
H       0.713761   -2.563422   -1.594136
H      -1.044932   -2.581358    2.036804
H       1.283651   -1.908502    2.576460
H       1.736793   -1.909120    0.806949
H      -0.445705   -0.143534    2.117595
