21

C      -0.441540    1.463340   -0.118510
C      -0.255221   -0.046843   -0.280348
C       1.086107   -0.418618   -0.929855
C       1.252796   -1.913435   -1.064383
O       0.492414   -2.576662   -2.086732
C       1.915858   -2.609440   -2.178668
C       2.560821   -1.904320   -3.362574
C       2.616296   -2.751862   -4.549306
C       2.663952   -3.468582   -5.512349
H       0.344770    1.895877    0.510503
H      -0.406260    1.973258   -1.087694
H      -1.404789    1.697678    0.344766
H      -0.328490   -0.535276    0.700110
H      -1.065232   -0.461861   -0.891290
H       1.160308    0.062773   -1.910323
H       1.913137   -0.028979   -0.319980
H       1.238068   -2.445104   -0.108925
H       2.349573   -3.589185   -1.970838
H       2.009518   -0.986887   -3.589493
H       3.579080   -1.603252   -3.080510
H       2.699713   -4.093799   -6.369690
