16

C      -0.151231    1.494197    0.023635
C      -0.063909   -0.004296   -0.005196
C      -0.080854   -0.729001   -1.135166
C      -0.017480   -2.177112   -1.108443
N      -0.032606   -2.879419   -2.170070
O       0.052291   -2.772796    0.132378
N       0.114402   -2.044845    1.328626
C       0.030824   -0.757243    1.246367
N      -0.037519   -0.062958    2.449530
H       0.762179    1.942977    0.435259
H      -0.290357    1.893354   -0.983026
H      -0.984707    1.825507    0.651902
H      -0.151208   -0.277141   -2.117510
H       0.019047   -3.873445   -1.940828
H       0.148133   -0.660983    3.245068
H       0.504074    0.789510    2.481779
