21

C       0.014115    1.428142   -0.046899
O       0.008659    0.022370   -0.015550
C       0.646655   -0.555238   -1.131688
C       0.583083   -2.070122   -0.994800
C       1.254682   -2.779424   -2.169185
C       1.203538   -4.289258   -2.051616
O       0.700645   -4.910665   -1.150087
O       1.807690   -4.868352   -3.110845
C       1.817313   -6.301023   -3.102153
H       1.038483    1.834638   -0.052468
H      -0.512560    1.821074   -0.931672
H      -0.498631    1.778507    0.852235
H       0.154708   -0.230275   -2.066489
H       1.696750   -0.216017   -1.192411
H       1.060325   -2.367425   -0.056129
H      -0.463188   -2.381315   -0.918921
H       0.789945   -2.503712   -3.124183
H       2.308306   -2.488327   -2.265073
H       0.797625   -6.694608   -3.093978
H       2.334380   -6.600385   -4.013952
H       2.344179   -6.678917   -2.222170
