19

C       0.246830    1.246687    0.381369
N      -0.254870    0.061264   -0.303737
C       0.582719   -0.428077   -1.364391
C       0.410760    0.307508   -2.678303
C       1.947852   -1.026184   -1.047858
C       0.774617   -1.938419   -1.386725
O       0.154359   -2.643121   -0.349158
C       0.781333   -2.644792   -2.650630
N       0.800357   -3.230557   -3.647933
H       1.264191    1.133714    0.794569
H       0.260933    2.101963   -0.301904
H      -0.431745    1.494744    1.201872
H      -0.439464   -0.685496    0.355191
H       0.713980    1.353409   -2.567205
H       1.017285   -0.132076   -3.473599
H      -0.638715    0.287195   -2.983528
H       2.752646   -0.938911   -1.769443
H       2.254893   -1.053533   -0.007566
H       0.742084   -3.353758   -0.067939
