15

N       0.150196    1.346346    0.102151
C      -0.048779   -0.027707    0.039819
C      -1.168473   -0.804575    0.095226
C      -0.695051   -2.164729    0.075581
N      -1.483467   -3.316447    0.194505
C       0.661843   -2.120384   -0.000831
N       1.607499   -3.139188   -0.043035
O       1.071143   -0.772645   -0.009227
H       0.979528    1.638477   -0.399411
H      -0.656511    1.871275   -0.206390
H      -2.190627   -0.467317    0.161701
H      -2.309517   -3.287466   -0.390498
H      -0.941011   -4.144903   -0.021934
H       2.203087   -3.106544   -0.864840
H       2.203997   -3.179445    0.778468
