19

C      -0.340566    1.476718   -0.058374
C      -0.076107   -0.019459   -0.115304
C       1.177840   -0.543861   -0.941606
O       2.031892    0.394684   -1.531663
C       1.687327   -1.208297    0.347457
O       1.865213   -0.122811    1.276806
C       0.541041   -0.695632    1.119006
C      -0.119772   -1.189870    2.365447
O      -0.620850   -0.120365    3.153990
H       0.532994    2.015440    0.319017
H      -0.574610    1.869653   -1.052182
H      -1.180900    1.693098    0.607904
H      -0.973143   -0.561330   -0.434109
H       0.891854   -1.255889   -1.719188
H       2.412846    0.905666   -0.806391
H       2.313104   -2.083042    0.489302
H      -0.986921   -1.806902    2.107478
H       0.588268   -1.816110    2.928328
H       0.131820    0.434238    3.387461
