20

C       0.106048    1.537890   -0.104333
C      -0.012845    0.033130    0.074825
O       0.512563   -0.626827   -1.098756
C       1.155419   -1.792971   -0.760309
N       1.436664   -2.719194   -1.571912
C       1.461986   -1.772375    0.691218
C       2.229196   -0.542910    1.151021
C       0.732980   -0.574323    1.263218
C       0.046677   -0.576874    2.606508
H       1.153034    1.843856   -0.177286
H      -0.411812    1.855665   -1.013188
H      -0.348960    2.054785    0.746474
H      -1.075416   -0.240119    0.156533
H       1.078508   -2.494237   -2.501837
H       1.581320   -2.714405    1.208614
H       2.794675   -0.649265    2.070260
H       2.706138    0.074442    0.396915
H      -0.091572    0.442605    2.984780
H      -0.940417   -1.049121    2.548128
H       0.636760   -1.123930    3.347490
