18

C       0.064793    1.540930   -0.017621
C      -0.094123    0.062031    0.116315
C      -1.385501   -0.776484    0.074145
C      -0.681536   -1.829352    1.004097
C      -0.530564   -3.246635    0.489122
O      -1.831228   -3.816426    0.405173
C       0.572842   -0.939813    0.969252
O       0.946674   -0.782169   -0.408644
H       1.091173    1.838588    0.213117
H      -0.162537    1.864815   -1.039778
H      -0.616081    2.067229    0.659241
H      -2.238742   -0.294429    0.556597
H      -1.678161   -1.126354   -0.918505
H      -1.140766   -1.839276    1.997107
H      -0.036989   -3.219300   -0.492243
H       0.113509   -3.824177    1.173376
H      -1.754005   -4.676503   -0.017648
H       1.362145   -0.838095    1.706981
