14

O      -0.136930    0.014625   -0.248716
C      -0.097625    1.189762   -0.055117
C      -1.085457    2.295039    0.340363
O       0.001229    3.248597    0.277814
C       0.983496    2.271827   -0.094430
C       2.309734    2.174949    0.685559
O       3.077778    2.292327   -0.526977
C       1.893324    2.518337   -1.314315
H      -1.879113    2.503125   -0.386999
H      -1.518732    2.205953    1.343650
H       2.457091    3.021468    1.367796
H       2.497569    1.230353    1.208342
H       1.800095    1.805516   -2.141383
H       1.820371    3.546531   -1.690148
