12

N       0.075337    1.374878    0.163408
C      -0.029359   -0.014105    0.046377
C      -1.140492   -0.812563    0.079071
N      -0.637891   -2.122518   -0.001251
C       0.701995   -2.013007   -0.076628
O       1.467574   -3.114396   -0.169461
N       1.123530   -0.773544   -0.054181
H       0.943092    1.703802   -0.239964
H      -0.707491    1.870494   -0.241479
H      -2.193277   -0.609184    0.161144
H      -1.163470   -2.978587   -0.008074
H       2.380675   -2.803480   -0.201717
