20

C      -0.139928    1.517554    0.013850
C       0.052342    0.020814   -0.007099
C       1.120781   -0.659819   -0.900548
N       1.340266   -1.696214    0.161827
C       0.059858   -2.496485    0.437211
C      -0.043768   -1.832326    1.831957
C       0.775307   -0.717494    1.184825
C      -1.102377   -1.995834   -0.412569
O      -1.221405   -0.581738   -0.247510
H       0.806975    2.023875    0.222816
H      -0.519914    1.869731   -0.950068
H      -0.863176    1.798394    0.785962
H       0.820964   -1.009908   -1.892541
H       2.036290   -0.067713   -0.996025
H       0.192535   -3.578531    0.364420
H      -1.043317   -1.596742    2.202812
H       0.531700   -2.359073    2.595591
H       1.485507   -0.117435    1.761008
H      -0.963181   -2.253983   -1.472301
H      -2.047899   -2.440932   -0.083210
