22

C       0.092449    1.578967    0.003581
C      -0.000095    0.051981   -0.040481
C      -1.426617   -0.472262    0.171943
C      -1.508854   -1.986075    0.097796
C      -2.835849   -2.714828   -0.112803
C      -2.778751   -2.392441   -1.638180
C      -2.935687   -3.852804   -2.069580
C      -2.060820   -3.870321   -0.814711
N      -1.276849   -2.613673   -1.283653
H       1.121298    1.920824   -0.146937
H      -0.526504    2.036399   -0.776553
H      -0.250759    1.971225    0.967829
H       0.370884   -0.318931   -1.002884
H       0.658816   -0.377978    0.725598
H      -1.799055   -0.148288    1.154127
H      -2.097304   -0.022141   -0.571332
H      -0.842680   -2.441628    0.844106
H      -3.722669   -2.789310    0.527394
H      -3.104857   -1.486278   -2.149482
H      -3.933836   -4.289776   -1.984636
H      -2.444620   -4.134883   -3.004671
H      -1.530820   -4.696151   -0.336003
