14

N      -0.023531   -1.144202   -0.016313
C       0.002890    0.011555   -0.028186
C       0.044027    1.459417    0.002697
O      -0.416882    2.113374   -1.181297
C       0.787343    2.931496   -1.258962
C       1.359085    2.293112    0.026495
C       0.897464    2.907313    1.370977
O      -0.368546    3.531529    1.151591
C      -0.357759    2.130238    1.368530
H       1.351981    2.701303   -2.167547
H       0.554075    3.996953   -1.207204
H       2.337407    1.819797    0.006711
H       1.503968    3.275572    2.188854
H      -0.978646    1.724345    2.158406
