21

C       0.792319    1.469785   -0.377727
C       0.236417    0.083236   -0.137938
C       1.157038   -1.100347    0.006903
C       0.374326   -0.604899    1.205378
C       1.016605    0.091303    2.383766
C       1.299534   -0.650897    3.722893
C       2.477851   -1.414821    3.076352
C       2.548584    0.079817    2.678850
O       2.239990    0.435857    4.082487
H       1.742898    1.619330    0.143419
H       0.971686    1.639243   -1.445012
H       0.100299    2.245250   -0.030430
H      -0.698458   -0.111882   -0.657358
H       0.878117   -2.047501   -0.442443
H       2.224630   -0.902500   -0.010875
H      -0.478508   -1.219365    1.485775
H       0.586231    1.078606    2.575784
H       0.594780   -0.978270    4.488913
H       3.251341   -1.737885    3.774005
H       2.258990   -2.151150    2.302190
H       3.354578    0.631037    2.191759
