15

C       0.098915    1.513934    0.007720
C      -0.069104   -0.005016    0.003051
C      -1.494679   -0.443037    0.013664
N      -2.536828    0.283122    0.024711
C      -3.666527   -0.637180    0.031402
C      -3.051387   -2.032321    0.021183
O      -3.536048   -3.118949    0.022635
O      -1.677067   -1.818397    0.010887
H       1.160342    1.774929   -0.000737
H      -0.377024    1.963106   -0.867141
H      -0.361195    1.955958    0.894613
H       0.410735   -0.456148   -0.875196
H       0.425971   -0.463287    0.869044
H      -4.294963   -0.500659    0.918330
H      -4.310289   -0.494663   -0.843506
