21

C       0.024836    1.551146   -0.130101
C       0.019974    0.040891    0.061791
O       0.591695   -0.512053   -1.130958
C       1.094053   -1.837879   -1.009072
C       1.678113   -2.043090    0.381629
C       2.272443   -0.724312    0.909294
C       0.794012   -0.469353    1.293806
C       0.436448    0.184874    2.606879
O       0.571256   -1.920875    1.317924
H       1.046312    1.944918   -0.128605
H      -0.429648    1.796063   -1.093586
H      -0.545993    2.050477    0.657279
H      -1.014575   -0.322124    0.176764
H       0.299022   -2.581780   -1.170970
H       1.850927   -1.953782   -1.793516
H       2.224520   -2.983680    0.491730
H       2.897717   -0.874753    1.790605
H       2.750650   -0.049627    0.197702
H       0.776424    1.224342    2.633618
H      -0.646839    0.172219    2.769438
H       0.910192   -0.359155    3.428276
