16

C       0.115944    1.402770    0.104870
N      -0.134635   -0.009740   -0.097419
C       0.518465   -0.723356   -1.060197
N       0.591281   -2.052841   -1.080716
C       1.274207   -2.351213   -2.218151
C       1.637666   -1.213973   -2.913037
N       1.134442   -0.162652   -2.129212
C       2.362111   -1.011588   -4.141258
O       2.813449   -1.895459   -4.843582
H       1.174486    1.634139    0.296454
H      -0.213185    1.980920   -0.767120
H      -0.472024    1.746859    0.957076
H      -0.344618   -0.565608    0.716820
H       1.488551   -3.370248   -2.502092
H       1.202866    0.817292   -2.344824
H       2.489380    0.062771   -4.422483
