12

F       0.250910    0.187667   -0.514132
C       0.115943    1.463247   -0.225023
N      -1.107487    1.941636   -0.246520
C      -1.239710    3.237061    0.047706
C      -0.141260    4.036588    0.360049
N       1.092059    3.537804    0.377796
C       1.245899    2.242605    0.086033
C       2.648402    1.736156    0.120734
O       2.990160    0.604703   -0.111154
H      -2.247022    3.643854    0.033061
H      -0.260726    5.089051    0.597738
H       3.363900    2.540634    0.391778
