19

C       0.005904    1.473888   -0.016727
C       0.001293    0.018684   -0.002059
C      -0.000670   -1.187521    0.003559
C       0.008887   -2.610540    0.038854
C      -0.326465   -3.473624   -1.161511
C      -1.167732   -3.624612    0.064254
C      -0.436923   -4.490536    1.090495
C       0.746607   -3.459362    1.080468
O       2.016037   -3.891567    0.646935
H       0.936838    1.869609    0.405084
H      -0.082875    1.863663   -1.037192
H      -0.823029    1.887651    0.569213
H      -0.777427   -2.928807   -1.983209
H       0.363065   -4.259581   -1.456250
H      -2.223515   -3.386103    0.075145
H      -0.933396   -4.547928    2.061675
H      -0.178349   -5.500485    0.755988
H       0.811861   -2.925036    2.036245
H       2.422921   -4.395278    1.359112
