20

C      -0.018612    1.590868    0.133502
C      -0.017630    0.064062    0.036393
C      -1.439616   -0.479877   -0.202127
C      -2.020216   -0.034422   -1.468123
N      -2.458644    0.322372   -2.476381
C       1.106932   -0.476247   -0.902413
C       2.013145   -0.680818    0.343100
C       0.735597   -0.612536    1.219775
O       0.736979    0.134771    2.411083
H       0.990851    1.980116    0.286230
H      -0.417514    2.029083   -0.786682
H      -0.629244    1.929049    0.975568
H      -1.428746   -1.576012   -0.201114
H      -2.100980   -0.166513    0.615033
H       0.832894   -1.422402   -1.377298
H       1.463038    0.208058   -1.674524
H       2.613215   -1.592037    0.393519
H       2.658284    0.181237    0.529641
H       0.337053   -1.624844    1.391084
H       1.247804   -0.342602    3.072394
