14

N      -0.411107    1.032604   -0.813611
C      -0.230167   -0.191297   -0.234020
C      -1.124415   -1.101114    0.281577
C      -2.595759   -0.901110    0.474209
O      -3.164314   -0.063199   -0.535898
C      -0.283496   -2.193447    0.612986
N       0.982258   -1.984112    0.349209
O       1.012665   -0.682544   -0.210682
H       0.355245    1.683651   -0.738126
H      -1.336135    1.415215   -0.683054
H      -3.109288   -1.872485    0.524387
H      -2.816094   -0.379744    1.413994
H      -3.014103   -0.495894   -1.384134
H      -0.566568   -3.140642    1.054140
