18

C       0.302015    1.455797    0.597521
C       1.606245    1.474158   -0.234223
O       2.743396    1.001352    0.505436
C       2.447968   -0.392779    0.145574
C       2.117920   -1.278166    1.308761
C       0.858877   -1.556210    1.647330
C      -0.339974   -0.975820    0.933890
N      -0.035830    0.118854    0.025481
C       1.241305    0.052322   -0.709579
H       0.501911    1.475897    1.675340
H      -0.449760    2.213652    0.348684
H       1.834516    2.335747   -0.862907
H       3.287223   -0.797960   -0.433328
H       2.947861   -1.701473    1.867909
H       0.651194   -2.237545    2.469949
H      -0.857481   -1.776995    0.383145
H      -1.067860   -0.613065    1.670815
H       1.181212   -0.306761   -1.738915
