16

C      -0.089717    1.590001    0.023569
C       0.006065    0.054331    0.041630
C       0.824990   -0.528389   -1.120135
C       1.855808   -1.288031   -0.694062
C       1.823657   -1.288284    0.768981
C       0.779461   -0.530312    1.175506
O       0.743419   -0.520720    2.531372
C       1.817041   -1.308713    2.868395
N       2.494172   -1.792823    1.872853
H       0.907167    2.038598    0.041138
H      -0.605399    1.931295   -0.878820
H      -0.647129    1.952827    0.891996
H      -1.010807   -0.363040    0.002995
H       0.567666   -0.318465   -2.150247
H       2.574707   -1.804606   -1.315173
H       1.987280   -1.445492    3.924383
