17

C      -0.051215    1.561973    0.067967
C       0.001648    0.033342    0.002920
C       0.714703   -0.481005   -1.251139
C       0.760891   -2.024408   -1.303891
C       1.433234   -2.534907   -2.485805
C       1.996971   -2.934364   -3.477587
C       2.632655   -3.389974   -4.596085
N       3.173632   -3.778071   -5.548405
H       0.955738    1.992975    0.074105
H      -0.583759    1.976705   -0.794675
H      -0.564963    1.902169    0.971964
H       0.510196   -0.356162    0.894704
H      -1.018246   -0.372327    0.032263
H       0.209628   -0.109071   -2.149985
H       1.739095   -0.092807   -1.287004
H       1.268682   -2.410595   -0.410122
H      -0.260325   -2.426873   -1.272875
