16

O      -0.088795    1.092983    1.608194
C      -0.123575    1.477721    0.465609
O      -1.333169    1.752710   -0.079102
C      -1.499751    2.099775   -1.455626
C      -0.834888    3.425505   -1.818681
C       0.626585    3.258646   -2.236002
C       1.465636    2.367725   -1.372192
C       1.141357    1.629532   -0.304754
H      -1.136769    1.285145   -2.095712
H      -2.583359    2.163793   -1.575798
H      -1.388456    3.897022   -2.637823
H      -0.922220    4.092154   -0.953707
H       0.673783    2.855487   -3.259334
H       1.115750    4.239939   -2.303100
H       2.510012    2.321712   -1.679373
H       1.933582    1.077109    0.190853
