18

C       0.037392    1.119012   -0.278273
O      -0.235733   -0.160335    0.296883
C       0.681264   -0.578222    1.205918
O       1.665390    0.051988    1.526946
N       0.320480   -1.795513    1.696168
C       1.131868   -2.519937    2.651605
C       1.631006   -3.826912    2.083828
C       1.734974   -5.036459    2.906195
O       0.653902   -4.871085    1.986876
H       0.995617    1.114488   -0.804315
H      -0.777674    1.307471   -0.977831
H       0.064351    1.895093    0.491069
H      -0.503417   -2.233945    1.317951
H       1.970710   -1.867733    2.908370
H       0.558269   -2.721714    3.564951
H       2.271929   -3.737501    1.205841
H       2.460321   -5.804977    2.644743
H       1.462300   -4.995901    3.960137
