20

C      -0.114352    1.529790    0.133961
C      -0.058880   -0.001792    0.005295
C       0.872807   -0.627554    1.050993
C      -1.443531   -0.576435    0.073491
C      -2.281715   -0.973791    1.235905
C      -2.024079   -1.977998    0.100115
C      -2.804539   -1.529795   -1.086245
N      -3.559871   -2.083534   -1.918919
O      -2.348394   -0.212499   -1.021935
H       0.881053    1.962353   -0.005860
H      -0.784250    1.960597   -0.614741
H      -0.476204    1.825347    1.124825
H       0.328759   -0.245815   -0.992776
H       0.913780   -1.717237    0.956199
H       1.888815   -0.242151    0.926567
H       0.550776   -0.383598    2.069023
H      -1.753711   -1.212846    2.153564
H      -3.268988   -0.542391    1.367221
H      -1.575510   -2.947347    0.258992
H      -3.872957   -1.418811   -2.628377
