18

C      -0.037075    1.447735    0.109202
N       1.272003    0.790572   -0.094033
C       1.632302    0.210187    1.251976
C       0.391712   -0.709264    1.260577
O       0.774588   -2.056883    1.031879
C      -0.085081   -2.705467    0.125074
O      -0.042265   -2.142886   -1.156753
C      -0.582135   -0.823599   -1.168148
C      -0.016826   -0.015105   -0.040525
H      -0.264383    1.897504    1.074688
H      -0.351583    2.038166   -0.746906
H       2.554113   -0.368029    1.185506
H       1.710165    0.957651    2.047610
H      -0.306684   -0.653911    2.107744
H       0.274393   -3.731949    0.036431
H      -1.123132   -2.696966    0.510231
H      -0.333057   -0.381013   -2.136382
H      -1.681239   -0.873047   -1.077067
