27

C      -0.130797    1.567334    0.099697
C       0.001717    0.043670    0.005427
C       0.751341   -0.467162   -1.236776
C       2.230305   -0.043688   -1.261971
C       2.966395   -0.595561   -2.491137
C       2.834160   -2.120334   -2.591826
C       1.364008   -2.568668   -2.583664
C       1.235135   -4.093135   -2.657571
C       0.641208   -1.998132   -1.352005
H       0.841745    2.059734    0.195792
H      -0.622813    1.976768   -0.790016
H      -0.729084    1.854683    0.970216
H       0.502708   -0.337464    0.906363
H      -1.002688   -0.399854    0.010589
H       0.264257   -0.030710   -2.123780
H       2.318216    1.047887   -1.238767
H       2.719551   -0.414686   -0.348904
H       2.548892   -0.135963   -3.397965
H       4.023515   -0.307474   -2.458371
H       3.332421   -2.487352   -3.497455
H       3.352906   -2.587857   -1.741816
H       0.882732   -2.143286   -3.477965
H       1.702601   -4.568478   -1.786738
H       0.185238   -4.404883   -2.681100
H       1.723393   -4.491225   -3.553786
H       1.067533   -2.455997   -0.445856
H      -0.416169   -2.292236   -1.373789
