12

O       0.095796    1.307336    0.127754
C       0.057176   -0.027150   -0.010532
C       0.028065   -0.846430   -1.131106
C      -0.007882   -2.200744   -0.644307
C       0.000825   -2.146558    0.717604
N       0.040860   -0.808299    1.094403
C       0.035120   -0.354032   -2.451459
N       0.042590    0.108451   -3.516242
H       0.102327    1.706833   -0.751404
H      -0.036315   -3.088276   -1.254885
H      -0.017374   -2.924740    1.461307
H       0.055967   -0.451388    2.034627
