20

C       0.041522    1.538042    0.096081
N       0.071908    0.095047    0.156997
C      -1.188258   -0.659142    0.282805
C      -0.499095   -1.617417    1.286231
C       0.139901   -2.909497    0.714827
C       1.533898   -2.522351    0.176569
C       1.938052   -1.280421    0.977570
O       3.056468   -0.930206    1.252499
C       0.641195   -0.564571    1.358376
H       1.063204    1.930220    0.109206
H      -0.429199    1.857785   -0.839826
H      -0.515634    1.997254    0.934628
H      -1.997068   -0.076812    0.753089
H      -1.564685   -1.085636   -0.655487
H      -1.063319   -1.808714    2.198264
H       0.251561   -3.639663    1.523177
H      -0.493184   -3.374160   -0.046737
H       2.287020   -3.307359    0.264578
H       1.483503   -2.223763   -0.876522
H       0.727077    0.065354    2.251055
