17

O      -0.628845    0.356497    0.146614
C       0.465179    0.534686   -0.315217
C       1.325663    1.762282   -0.028707
O       2.645827    1.308247    0.238237
C       3.588104    1.991315   -0.588027
C       2.813664    2.383972   -1.841529
C       1.430364    2.745723   -1.249177
C       0.325958    2.679103   -2.192073
C      -0.583674    2.615227   -2.974777
H       0.960970   -0.207797   -0.979893
H       0.903663    2.273550    0.843965
H       3.979098    2.879048   -0.067500
H       4.421679    1.310558   -0.779730
H       3.259711    3.217330   -2.388201
H       2.718895    1.533609   -2.522507
H       1.483226    3.761725   -0.840497
H      -1.394187    2.557803   -3.658739
