15

O       0.345221    1.047027    0.023276
C       0.078721   -0.328847   -0.012974
C      -1.463402   -0.616687   -0.015110
C      -2.082526    0.027596   -1.162865
C      -2.537775    0.598158   -2.117851
C      -1.682491   -2.124611    0.005538
O      -1.860049   -2.818094   -0.964984
C      -1.621421   -2.803324    1.382729
O      -1.438066   -2.208022    2.411236
H      -0.063130    1.440932   -0.757704
H       0.521347   -0.818636   -0.892454
H       0.517477   -0.758900    0.890939
H      -1.852258   -0.201962    0.921484
H      -2.971694    1.084786   -2.956666
H      -1.765973   -3.901897    1.322721
