19

O      -0.002464    1.410463    0.019705
C       0.035154   -0.009488   -0.001661
C      -1.371413   -0.511451    0.014981
C      -1.845472   -2.021424    0.000796
C      -2.634822   -1.752018    1.312016
C      -2.476969   -0.231786    1.076741
O      -3.386429    0.245005    0.061290
C      -2.513086   -0.200983   -0.998962
C      -2.679962   -1.713481   -1.273528
H       0.902452    1.736231    0.010720
H       0.550770   -0.384466   -0.902365
H       0.580740   -0.410335    0.869763
H      -1.169207   -2.876619   -0.023788
H      -3.654541   -2.138456    1.392574
H      -2.056243   -2.068265    2.186900
H      -2.408988    0.453383    1.923720
H      -2.474337    0.509119   -1.827031
H      -2.132509   -2.003433   -2.177080
H      -3.702137   -2.097705   -1.329838
