21

C      -0.239206    1.499265   -0.194686
O      -0.372512    0.348079    0.607796
C      -1.314307   -0.566044    0.118036
C      -0.984976   -1.412761   -1.141883
C      -1.574319   -2.645228   -0.402649
C      -1.430865   -1.876355    0.944489
C      -0.188681   -2.204725    1.741618
C       0.216572   -3.583903    2.034872
O       0.914951   -2.808595    1.057472
H       0.497689    2.147752    0.285000
H       0.110796    1.255010   -1.208365
H      -1.192277    2.045264   -0.281203
H      -2.297318   -0.077895    0.014380
H      -1.435590   -1.119312   -2.092570
H       0.096833   -1.512303   -1.259108
H      -2.620492   -2.831888   -0.655533
H      -1.011474   -3.574312   -0.496711
H      -2.289448   -1.913330    1.623351
H       0.109892   -1.429341    2.445900
H       0.775093   -3.802810    2.943896
H      -0.367541   -4.414632    1.640136
