21

C       0.028020    1.475992   -0.177384
C      -0.040682   -0.052904   -0.199751
C      -1.439023   -0.575740    0.096500
O      -1.412009   -1.988507    0.055035
C      -2.676940   -2.561241    0.320451
C      -2.601449   -4.013534    0.255894
C      -2.567864   -5.214774    0.202151
C      -2.506640   -6.668935    0.163421
O      -3.011628   -7.141787   -1.079598
H       1.041480    1.826123   -0.392925
H      -0.641080    1.917421   -0.924313
H      -0.259487    1.875225    0.801637
H       0.272141   -0.434510   -1.178190
H       0.651554   -0.476569    0.536644
H      -1.777903   -0.227429    1.088601
H      -2.160694   -0.184311   -0.642467
H      -3.038256   -2.250805    1.316896
H      -3.424875   -2.200491   -0.407441
H      -1.460849   -6.982314    0.315672
H      -3.085672   -7.075215    1.009093
H      -2.941700   -8.101884   -1.070075
