13

N      -0.026098    1.379145    0.010107
C       1.302445    1.748969   -0.001003
N       2.137206    0.725569   -0.014625
C       1.297176   -0.347827   -0.011962
C      -0.046151   -0.002482    0.003084
C      -0.825524   -1.189217    0.004525
C       0.097603   -2.219938   -0.009966
N       1.387022   -1.715652   -0.020031
H      -0.809929    2.007855    0.021140
H       1.595842    2.787976    0.001568
H      -1.897383   -1.306649    0.014469
H      -0.068144   -3.285306   -0.013914
H       2.230129   -2.261147   -0.031220
