19

C      -0.114254    1.645551    0.288742
C      -0.031286    0.121503    0.148447
C      -1.458799   -0.377237    0.047948
O      -1.929715   -0.981350   -0.883278
C       1.036801   -0.564163   -0.768403
C       2.134075   -0.148538    0.256010
C       0.930097   -0.689863    1.092760
O       0.763133   -0.710935    2.463692
C       0.859440   -1.867770    0.071022
H       0.851084    2.113357    0.482755
H      -0.529116    2.092752   -0.621069
H      -0.776754    1.912713    1.119376
H      -2.093598   -0.093650    0.920272
H       1.094606   -0.498304   -1.851162
H       3.030549   -0.774632    0.261015
H       2.395523    0.905028    0.340471
H       1.439711   -1.278195    2.849555
H      -0.080117   -2.407328   -0.030662
H       1.716887   -2.545611    0.070254
