19

C      -0.283356    1.346001    0.956025
C      -0.117398   -0.087906    0.488722
C       1.003631   -0.415016   -0.539342
O       2.018504   -0.149340    0.507901
C       0.972700   -0.974784    1.160479
C       1.014979   -1.905454   -0.084548
C      -0.034208   -2.921403   -0.447504
C      -0.538614   -3.907485    0.519728
O      -1.359646   -2.823482    0.082634
H       0.687651    1.813315    1.130691
H      -0.826085    1.935398    0.208870
H      -0.863548    1.385195    1.884368
H      -1.069344   -0.590760    0.318712
H       1.188136    0.003179   -1.530451
H       1.119473   -1.223318    2.212947
H       2.008207   -2.343204   -0.224562
H      -0.010495   -3.226908   -1.495827
H      -0.846750   -4.894626    0.179127
H      -0.210933   -3.853965    1.556914
