14

C      -0.002409    1.386496    0.128064
N       0.024450   -0.054126   -0.000742
C      -0.112979   -0.790287   -1.113502
C      -0.017121   -2.127359   -0.739858
C      -0.100701   -3.268255   -1.566094
N      -0.169911   -4.202204   -2.248122
C       0.183525   -2.063910    0.665793
O       0.332311   -3.123862    1.469651
N       0.208625   -0.819875    1.111115
H       0.944463    1.744493    0.540584
H      -0.157858    1.824270   -0.858910
H      -0.815428    1.689064    0.793180
H      -0.266592   -0.346040   -2.083912
H       0.451624   -2.795036    2.370092
