18

C      -0.523415    1.322154    0.104402
C       0.291945    0.059766   -0.153948
N       1.410941    0.262284   -1.084894
C       2.427407   -0.750968   -0.806937
C       2.390499   -0.927543    0.722029
C       0.974055   -0.482739    1.103812
O       0.485657   -0.547545    2.200081
C       2.197909   -2.071110   -1.535970
O       1.311389   -2.251791   -2.330963
H       0.134633    2.144349    0.398456
H      -1.071906    1.624627   -0.792245
H      -1.241060    1.137404    0.908262
H      -0.386221   -0.747105   -0.488308
H       1.098384    0.176294   -2.046764
H       3.419904   -0.404896   -1.133452
H       2.587466   -1.945859    1.068931
H       3.106614   -0.268435    1.222123
H       2.937867   -2.871291   -1.300120
