16

C      -0.013010    1.444496    0.085416
C       0.001629   -0.044265   -0.013355
C      -0.030882   -0.787134   -1.133242
C      -0.002970   -2.234010   -0.835040
O      -0.021129   -3.151563   -1.624651
C       0.054088   -2.313201    0.678531
C       0.057849   -0.905729    1.229994
N       0.095089   -3.318130    1.465410
O       0.085544   -4.538852    0.819344
H       0.877617    1.806873    0.613985
H      -0.049516    1.916933   -0.898635
H      -0.877816    1.785582    0.668376
H      -0.072625   -0.413110   -2.148764
H       0.956286   -0.695256    1.824063
H      -0.798766   -0.716068    1.889271
H       0.120128   -5.160156    1.556234
