19

O       0.716739   -0.201878   -0.590654
C      -0.219261    0.297969    0.367046
C      -1.564663   -0.377181    0.239289
C      -2.192929   -0.726331   -1.105240
C      -1.748006   -1.816374   -0.136434
O      -0.715763   -2.693707   -0.451491
C      -2.791502   -2.352824    0.825060
C      -3.410702   -1.070267    1.418655
O      -2.430878   -0.029678    1.289127
H       0.538353    0.224321   -1.434594
H       0.197418    0.071284    1.353488
H      -0.318105    1.389166    0.292037
H      -3.245825   -0.522126   -1.272885
H      -1.570027   -0.611202   -1.987417
H       0.063156   -2.150485   -0.640211
H      -3.544907   -2.991502    0.355367
H      -2.270380   -2.941346    1.586597
H      -4.322311   -0.786149    0.875961
H      -3.664638   -1.159948    2.477956
