17

O      -0.070406    0.588732   -1.365569
C      -0.087154    1.340649   -0.421232
C      -1.363478    2.009470    0.078800
C      -1.214321    2.493605    1.531088
C      -0.026601    3.435714    1.601718
C       1.184105    3.125898    2.402898
N       1.218388    2.992047    0.945582
C       1.182091    1.638849    0.383334
H      -1.561476    2.865851   -0.580010
H      -2.193075    1.310324   -0.058530
H      -2.124343    2.998974    1.867104
H      -1.071920    1.633306    2.194464
H      -0.260173    4.480431    1.401709
H       1.797998    3.922743    2.813822
H       1.170027    2.212761    2.997615
H       1.235639    0.856667    1.160433
H       2.043126    1.489696   -0.273133
