19

O      -0.052199    1.402561   -0.066064
C       0.015337   -0.014524    0.024228
C       0.630318   -0.512756    1.368433
C      -0.602226   -0.915577    2.184299
C      -1.374504   -2.161893    1.641713
C      -2.693452   -1.445204    2.001229
C      -1.863751   -0.207924    1.575879
C      -1.419359   -0.535768    0.130778
O      -1.297825   -1.979056    0.215389
H       0.846502    1.744100   -0.101205
H       0.521865   -0.443897   -0.849834
H       1.319930   -1.348890    1.219479
H       1.183128    0.300637    1.849350
H      -0.515042   -0.879596    3.269799
H      -1.138024   -3.194525    1.896196
H      -3.577484   -1.719070    1.420825
H      -2.911895   -1.445439    3.071326
H      -2.138462    0.821141    1.795013
H      -2.082437   -0.250893   -0.687140
