18

O       0.027250    0.041575   -0.521171
C       0.008542    1.182590   -0.134460
C      -1.240384    2.036056    0.138626
N      -0.786132    3.285313    0.773917
C      -0.774236    3.176936    2.249379
C       0.511767    2.395058    2.623780
C       1.427968    2.727131    1.446247
C       0.631453    3.457968    0.406419
C       1.184861    2.089819    0.071169
H      -1.712721    2.249986   -0.829658
H      -1.976138    1.503021    0.745949
H      -0.722088    4.189032    2.665219
H      -1.699974    2.719203    2.606853
H       0.942963    2.737703    3.568778
H       0.330976    1.319465    2.722071
H       2.461527    2.992693    1.638781
H       0.936710    4.373546   -0.086369
H       2.052174    1.936381   -0.559939
