20

C       0.378260    1.536211    0.170043
C      -0.151420    0.116984   -0.069525
C       0.432522   -0.511666   -1.318595
C       1.759519   -1.230639   -1.289710
C       0.486171   -2.004695   -1.560024
C      -0.041030   -3.025781   -0.566983
C       0.654107   -4.361887   -0.731807
O       0.094460   -5.417494   -0.880299
H       1.466965    1.534301    0.286508
H       0.137086    2.194631   -0.671639
H      -0.058274    1.975227    1.072381
H       0.073668   -0.501383    0.807134
H      -1.246015    0.143917   -0.150786
H       0.245425    0.073128   -2.217015
H       2.465493   -1.081869   -2.099132
H       2.226040   -1.365552   -0.317664
H       0.333751   -2.301847   -2.594747
H       0.152326   -2.686945    0.459465
H      -1.119232   -3.183768   -0.670600
H       1.767087   -4.299445   -0.713475
