20

C      -0.171660    1.273049   -1.071823
C      -0.093547    0.213204    0.005024
C       0.916803   -0.884967   -0.136530
N       1.096261    0.146202    0.884634
C      -1.412033   -0.118446    0.666149
O      -2.453894    0.229587    0.141827
C      -1.389644   -0.889801    1.939570
C      -2.551787   -0.665065    2.894889
C      -2.480585   -1.938828    2.128100
H       0.797605    1.395454   -1.565558
H      -0.918256    1.002967   -1.821719
H      -0.471167    2.236885   -0.648088
H       0.703507   -1.879272    0.245696
H       1.535579   -0.864474   -1.030014
H       1.776906    0.836255    0.576119
H      -0.416885   -1.079304    2.371726
H      -2.323146   -0.673774    3.954249
H      -3.283740    0.067322    2.574524
H      -3.166203   -2.058254    1.296905
H      -2.202211   -2.851511    2.642533
