14

C       0.008190   -1.283275   -0.015984
C       0.010427   -0.082135    0.008146
C      -0.028255    1.360930   -0.002059
C       0.091501    2.118024    1.359251
O       1.500944    1.704268    1.452997
C       1.323462    2.141852    0.058890
C       0.576735    3.399219    0.608462
C      -0.325250    4.165259   -0.232044
N      -1.043889    4.775117   -0.901708
H       0.016604   -2.345313   -0.027475
H      -0.772124    1.755260   -0.699575
H      -0.529846    2.045659    2.250255
H       2.180689    2.098090   -0.610769
H       1.213579    4.034485    1.223449
