15

C      -0.060465    1.563222    0.018309
C       0.081468    0.059641    0.055420
C       1.359119   -0.675038   -0.213107
O       2.566226    0.062246   -0.046246
C       2.594240    0.399069    1.271526
N       1.659220   -0.009412    2.037011
C       0.741279   -0.721439    1.189090
C       3.711819    1.193011    1.687333
N       4.614801    1.833916    2.016822
H       0.786336    2.075818    0.478575
H      -0.138089    1.913102   -1.015761
H      -0.963273    1.873372    0.552565
H      -0.775146   -0.480736   -0.340618
H       1.464348   -1.482626   -0.925639
H       0.237798   -1.570176    1.634250
