17

O      -0.085807    1.440121   -0.048360
C      -0.016173    0.037044    0.011944
C       0.902619   -0.519086   -1.098298
C       2.259335    0.003999   -0.956824
N       3.307965    0.464010   -0.797968
C       0.208043   -0.642046    1.398421
N      -1.094027   -1.393209    1.293056
C      -2.130926   -0.348714    1.237261
C      -1.381478   -0.635765    0.001177
H       0.804414    1.798773    0.060035
H       0.925220   -1.613038   -1.067508
H       0.506372   -0.217360   -2.074151
H       1.053230   -1.332127    1.438132
H       0.253382    0.043428    2.249637
H      -3.138146   -0.747800    1.302923
H      -1.969764    0.591200    1.758494
H      -1.827870   -1.119467   -0.862245
