22

C      -0.919048    1.172925   -1.539937
C      -0.489271   -0.078104   -0.804137
C       0.949978   -0.552235   -0.714922
C       2.121170    0.167507   -1.345841
C       0.243300   -0.044561    0.525007
C       0.644703    1.255017    1.197900
N      -0.161568   -1.067572    1.463999
C       0.721100   -1.768415    2.227100
O       1.929030   -1.684255    2.157717
H      -0.178514    1.973692   -1.485029
H      -1.084025    0.954687   -2.600648
H      -1.857931    1.566628   -1.134487
H      -1.214374   -0.885935   -0.881688
H       1.061730   -1.632057   -0.729572
H       1.994054    1.252240   -1.375255
H       3.038745   -0.045284   -0.787909
H       2.269126   -0.171175   -2.377069
H       0.955358    2.017869    0.482125
H      -0.189934    1.662684    1.779485
H       1.479904    1.070190    1.879523
H      -1.141866   -1.150836    1.689294
H       0.201319   -2.454315    2.927989
