23

C      -0.175799    1.524933   -0.029262
C      -0.004122    0.011118   -0.011738
C       1.134539   -0.595398   -0.891261
C       2.106570   -0.290018    0.283309
C       0.852044   -0.609599    1.153782
C       0.716948   -0.180795    2.596153
C       0.685967   -2.113617    0.857036
O      -0.605116   -2.536610    1.270191
C       0.903518   -2.104602   -0.695445
H       0.765327    2.069983    0.087726
H      -0.624176    1.846698   -0.975870
H      -0.845882    1.848349    0.774880
H      -0.982614   -0.462636   -0.138696
H       1.325045   -0.241378   -1.905811
H       2.984984   -0.934560    0.398960
H       2.415024    0.753757    0.347368
H       0.791679    0.906340    2.702235
H      -0.247093   -0.500031    3.004193
H       1.504377   -0.629695    3.213637
H       1.457366   -2.701509    1.376780
H      -0.708400   -3.462413    1.030940
H       0.010684   -2.469338   -1.213118
H       1.760116   -2.709965   -1.008044
