16

C       0.003940    1.473091   -0.034854
C       0.039654   -0.024427   -0.085568
C       0.554317   -0.978834   -1.189417
C       0.062293   -1.958483   -0.099905
C       0.070109   -3.393784   -0.091098
N       0.079830   -4.550482   -0.091744
C       0.502084   -0.993496    1.059523
O      -0.785844   -1.006402    1.730576
C      -1.116732   -1.006943    0.316462
H       1.011058    1.895120   -0.114722
H      -0.597003    1.881799   -0.853755
H      -0.433917    1.804911    0.911924
H      -0.003180   -0.989924   -2.129256
H       1.630496   -0.976370   -1.379316
H       1.413986   -1.013882    1.655192
H      -2.162521   -1.043596    0.013500
