21

C      -0.018788    1.559593   -0.012240
O       1.259765    2.162469   -0.101725
C       2.062773    1.658323   -1.153952
C       2.178976    0.124893   -1.149725
C       2.857459   -0.428761    0.114418
O       2.140162   -0.149754    1.303451
C       0.775888   -0.527488    1.256141
C       0.034254    0.023168    0.026634
C       0.762588   -0.466558   -1.235518
H      -0.472083    1.962481    0.899364
H      -0.648233    1.869110   -0.866340
H       1.657870    1.978490   -2.131211
H       3.043288    2.129215   -1.028774
H       2.782739   -0.172044   -2.016614
H       2.989793   -1.519453   -0.005444
H       3.848763    0.013790    0.256841
H       0.683610   -1.628833    1.259479
H       0.333407   -0.152936    2.184979
H      -0.996800   -0.351317    0.056431
H       0.248892   -0.126020   -2.142627
H       0.795745   -1.562195   -1.269817
