16

C      -0.323332   -1.229344   -0.708070
C      -0.187632   -0.111916   -0.288777
C       0.010825    1.257800    0.198581
N      -0.544717    1.390026    1.550382
C       0.118919    1.976678    2.450990
O       1.360756    2.515724    2.419301
C       2.100153    2.370135    1.227982
C       2.557246    0.999107    0.819971
C       1.465536    1.703439    0.045149
H      -0.456765   -2.217438   -1.073510
H      -0.595030    1.921483   -0.434762
H      -0.305650    2.109478    3.444039
H       2.752640    3.224976    1.097352
H       3.535377    0.894989    0.364786
H       2.258456    0.170448    1.453687
H       1.719262    2.085703   -0.937952
