21

C      -0.015691    1.517863    0.020503
C       0.006389    0.010435   -0.001119
C       0.596342   -0.875765   -1.154359
C       1.561798   -1.540979   -0.138378
C       0.855844   -0.784430    1.049261
C      -0.152411   -1.597484    1.815974
C      -1.344246   -1.606420    1.212990
C      -1.333587   -0.800655   -0.058283
C      -0.786246   -1.558234   -1.326243
H       0.997640    1.933358   -0.028367
H      -0.581565    1.921713   -0.827174
H      -0.483692    1.889750    0.940296
H       1.049026   -0.456758   -2.055279
H       1.550808   -2.633359   -0.085956
H       2.594511   -1.209946   -0.280859
H       1.539304   -0.207920    1.679488
H       0.096425   -2.147675    2.717550
H      -2.211400   -2.164935    1.549995
H      -2.252974   -0.236023   -0.238798
H      -1.287145   -1.238401   -2.244495
H      -0.809166   -2.650708   -1.279968
