19

C       0.089389    1.530298   -0.049151
C      -0.028802    0.006693    0.035528
C      -1.457330   -0.496327   -0.213876
C      -1.547214   -2.004434   -0.134496
N      -1.719310   -2.608426    1.180202
C      -2.801053   -2.775048    0.184207
C      -4.089289   -2.101912    0.507154
O      -5.147893   -2.422997    0.026959
H       1.116649    1.860409    0.132910
H      -0.208762    1.896888   -1.037666
H      -0.553543    2.018015    0.691715
H       0.650665   -0.456148   -0.692866
H       0.298070   -0.338415    1.023949
H      -2.133485   -0.047389    0.520886
H      -1.799493   -0.169089   -1.204599
H      -0.888498   -2.522419   -0.833148
H      -1.195221   -3.474154    1.269574
H      -2.923162   -3.731889   -0.317941
H      -4.003314   -1.274388    1.243793
