17

C      -0.284261    1.491859   -0.128050
O      -0.222300    0.206095    0.472637
C      -1.282097   -0.621867    0.117329
C      -1.256943   -1.360784   -1.252451
O      -0.955289   -1.031891   -2.362302
C      -1.614330   -2.705958   -0.584988
C      -1.298562   -2.019014    0.753682
C      -0.478223   -2.484395    1.867807
O      -1.902947   -2.315629    1.990490
H       0.580609    2.051352    0.233968
H      -0.244743    1.425725   -1.221360
H      -1.203486    2.021251    0.165076
H      -2.261883   -0.127720    0.255244
H      -2.673280   -2.963123   -0.697358
H      -1.005814   -3.563974   -0.878472
H      -0.129479   -3.515672    1.884081
H       0.123669   -1.765897    2.419248
