15

C       0.053857    1.438692    0.029144
N      -0.003544   -0.009582    0.030925
N      -0.223235   -0.718947   -1.068113
N      -0.211852   -1.974989   -0.696798
C       0.018998   -1.975056    0.637201
C       0.111935   -3.226251    1.461919
C       1.485983   -3.590853    1.800533
C       2.614582   -3.891459    2.079095
N       0.151474   -0.744712    1.123930
H       1.032329    1.769104    0.383361
H      -0.107850    1.767933   -0.996343
H      -0.723378    1.839990    0.682705
H      -0.470789   -3.093721    2.380633
H      -0.358716   -4.034117    0.891974
H       3.612978   -4.157199    2.323961
