14

N      -0.033904    1.358291    0.014327
C      -0.109397   -0.027388    0.013630
C      -1.175092   -0.873954    0.088973
C      -0.635248   -2.205831    0.043110
C       0.717259   -2.028880   -0.056601
N       1.303734   -3.259226   -0.105781
C       0.231815   -4.145996   -0.029994
N      -0.937188   -3.554246    0.059542
O       1.118180   -0.753732   -0.080785
H       0.489078    1.726741    0.802566
H       0.368788    1.734075   -0.838433
H      -2.199838   -0.548149    0.166435
H       2.278528   -3.492638   -0.179291
H       0.398605   -5.212385   -0.047114
