18

N      -0.003732   -0.711542   -1.163612
C      -0.020811    0.268543   -0.552035
C      -0.013725    1.503795    0.232211
C       1.386046    2.090960    0.346901
N       1.877968    2.875732   -0.790811
C       1.638124    3.552264    0.491649
C       0.542673    4.580426    0.499723
C       0.642892    5.770360   -0.381216
N      -0.343978    4.714175   -0.664342
H      -0.697203    2.225148   -0.223126
H      -0.402411    1.281630    1.233192
H       2.097785    1.427132    0.833338
H       2.865246    2.710731   -0.958177
H       2.506599    3.815774    1.094541
H       0.038228    4.691713    1.458051
H       0.228285    6.721693   -0.061023
H       1.511456    5.841768   -1.031039
H       0.040748    4.125377   -1.403906
