23

C      -1.542376   -0.278797   -0.022100
C      -0.024917   -0.096695    0.037567
C       0.719989   -0.621785   -1.212952
C       2.226842   -0.278019   -1.152493
C       2.996054   -0.629697   -2.427600
C       4.475871   -0.282235   -2.334479
O       5.086193   -0.632792   -3.567560
C       0.510632   -2.059210   -1.387809
C       0.349274   -3.245644   -1.503964
H      -1.971338    0.253239   -0.878724
H      -1.807698   -1.335456   -0.118600
H      -2.018236    0.110023    0.883277
H       0.216891    0.967513    0.147329
H       0.377901   -0.603327    0.922822
H       0.296839   -0.110809   -2.091034
H       2.315805    0.797350   -0.950976
H       2.669857   -0.796272   -0.292423
H       2.898853   -1.699081   -2.642227
H       2.568222   -0.095903   -3.285500
H       4.595415    0.793831   -2.123408
H       4.933215   -0.829312   -1.493363
H       6.023207   -0.425493   -3.508813
H       0.202895   -4.290670   -1.622323
