19

C      -0.141734    1.609078   -0.072398
C      -0.010734    0.086001   -0.093020
O       1.043688   -0.360995    0.744192
C      -1.351187   -0.597593    0.266230
C      -1.300578   -2.051263    0.197104
C      -1.261656   -3.252983    0.124234
C      -1.169706   -4.684409    0.039271
C      -2.253515   -5.567697    0.514146
O      -2.051123   -5.359756   -0.876858
H       0.820814    2.069880   -0.307887
H      -0.882205    1.957604   -0.799628
H      -0.455568    1.959886    0.919027
H       0.279658   -0.241612   -1.097279
H       0.845477   -0.084368    1.646098
H      -1.647441   -0.278938    1.276952
H      -2.133508   -0.225414   -0.408161
H      -0.157273   -5.087266    0.043826
H      -2.004299   -6.560679    0.887024
H      -3.152474   -5.117823    0.931437
