17

C      -0.136877    1.499663   -0.027019
N      -0.077736    0.043973   -0.010275
C      -0.020564   -0.649465   -1.224245
C       0.068050   -1.978386   -1.305573
C       0.056725   -2.767809   -0.057016
C       1.230367   -2.806758    0.876862
N       0.044385   -2.007651    1.199235
C       0.145999   -0.595532    1.204364
O       0.364852    0.014042    2.225854
H       0.825854    1.941410   -0.311945
H      -0.901938    1.828754   -0.736197
H      -0.389943    1.843226    0.974300
H      -0.041707   -0.011305   -2.100226
H       0.101017   -2.474546   -2.266657
H      -0.607195   -3.631760   -0.039767
H       1.393640   -3.666418    1.520191
H       2.128140   -2.276603    0.570967
