19

C       0.165381    1.606709    0.169170
C       0.192586    0.079571    0.053691
C       0.694629   -0.417006   -1.299952
O      -0.055253    0.073963   -2.378771
C       2.218301   -0.263486   -1.532618
N       2.409757   -1.659200   -1.069007
C       0.992774   -1.972238   -1.343719
C       0.335493   -2.862798   -0.390942
N      -0.219758   -3.548677    0.356300
H       1.168995    2.033116    0.072736
H      -0.458258    2.054554   -0.609581
H      -0.232429    1.911010    1.141101
H       0.825979   -0.352450    0.835503
H      -0.813487   -0.330123    0.221682
H      -0.987877    0.066429   -2.135107
H       2.421207   -0.099341   -2.598280
H       2.750493    0.484917   -0.938767
H       3.077512   -2.213631   -1.592824
H       0.788392   -2.328900   -2.362376
