15

O      -0.063671    1.321606    0.166021
C       0.075621   -0.050004    0.028495
C       0.904041   -0.896476   -0.912851
N       0.018712   -2.065338   -0.506303
C       0.392139   -2.277723    0.958661
C      -0.260592   -0.951278    1.243659
O      -0.579131   -0.402767    2.462623
C      -1.047509   -1.046664   -0.043351
H       0.757985    1.672526    0.532139
H       0.736980   -0.664175   -1.968336
H       1.973682   -1.046596   -0.724789
H      -0.161148   -3.135323    1.350203
H       1.464493   -2.408506    1.144534
H      -0.666528    0.551793    2.330260
H      -2.081598   -1.023979   -0.355946
