20

C       0.487917    0.192233    1.387383
N      -0.178516    0.182924    0.093590
C       0.642862    0.506875   -1.054109
C      -1.178066   -0.758778   -0.065771
N      -1.791499   -1.393057    0.910859
C      -2.757216   -2.179344    0.301518
C      -3.665133   -3.047529    1.108601
C      -2.712071   -2.019608   -1.051891
N      -1.685713   -1.105738   -1.286995
H       0.979827    1.159152    1.528466
H      -0.257965    0.045438    2.167676
H       1.243004   -0.604405    1.481605
H       1.255801   -0.338342   -1.411253
H       0.025612    0.863974   -1.886468
H       1.316562    1.324134   -0.786059
H      -4.258295   -2.452745    1.812356
H      -4.354044   -3.602029    0.465265
H      -3.095087   -3.770203    1.703255
H      -3.278294   -2.452516   -1.859293
H      -1.389955   -0.769635   -2.185390
