19

C      -0.105192    1.509392    0.077305
C      -0.027774    0.020439   -0.030176
C       0.112642   -0.763923   -1.148507
C       0.288131   -0.745239   -2.637580
C      -0.012270   -2.225012   -3.019078
C       0.317125   -3.051899   -1.750024
N       0.123008   -2.066227   -0.697497
C      -0.000929   -2.030804    0.654733
N      -0.101176   -0.790458    1.088415
H       0.739362    1.912587    0.647661
H      -0.097927    1.977480   -0.911388
H      -1.018667    1.819912    0.595726
H      -0.382326   -0.049380   -3.149279
H       1.312316   -0.468507   -2.920358
H      -1.076098   -2.332087   -3.249922
H       0.552795   -2.565904   -3.889220
H      -0.341918   -3.914389   -1.620097
H       1.353514   -3.411790   -1.754453
H      -0.025326   -2.919879    1.267005
