16

N       0.044113   -1.104209   -0.059316
C       0.031756    0.051395   -0.021335
C      -0.031260    1.490836    0.007796
C      -0.686164    2.420053    1.081186
C       0.001556    3.335545    0.027037
N       1.201663    2.387539   -0.027379
C      -0.615633    2.444163   -1.061074
C      -0.662003    2.405827   -2.518925
N      -1.903848    2.508295   -1.684491
H      -1.777311    2.433389    1.142628
H      -0.214119    2.388189    2.066550
H       0.124662    4.416231    0.036792
H       1.634780    2.362624    0.902152
H      -0.437984    3.292007   -3.104663
H      -0.449629    1.461500   -3.012783
H      -2.384498    1.611846   -1.650690
