15

C       0.656930    1.572041   -0.184531
O       1.246272    0.295194   -0.474331
C       0.421614   -0.609711   -0.995848
O      -0.738575   -0.429809   -1.274037
C       1.088698   -1.940861   -1.236010
O       2.456344   -2.121558   -0.939829
C       1.539387   -2.832828   -0.128613
C       1.399936   -2.451651    1.318738
O       1.912759   -1.497181    1.836989
H       0.263842    2.027046   -1.096857
H      -0.156073    1.461206    0.536662
H       1.460795    2.176025    0.233765
H       0.718629   -2.428932   -2.136637
H       1.474462   -3.906503   -0.317399
H       0.758540   -3.160919    1.889205
