19

C      -0.042926    1.493383   -0.019486
C       1.499916    1.738017   -0.010990
N       2.075729    0.372892    0.040299
C       1.203169   -0.393396   -0.942821
C       1.494046   -1.862149   -0.631371
N       2.747245   -2.089778    0.128890
C       1.478138   -1.813373    0.845323
C       1.181709   -0.327473    1.052872
C       0.022017   -0.029705    0.031518
H      -0.554122    1.925545    0.846029
H      -0.535109    1.867118   -0.922414
H       1.859092    2.246564   -0.909838
H       1.840073    2.305020    0.859845
H       1.222162   -0.053981   -1.980469
H       1.052594   -2.654420   -1.223974
H       2.898987   -3.097954    0.163841
H       1.023468   -2.565129    1.479272
H       1.178649    0.079677    2.066033
H      -0.916057   -0.592318    0.040018
