23

C      -0.087264    1.560490   -0.022182
C       0.046504    0.041982    0.002953
C       1.125495   -0.612997   -0.911966
C       1.480001   -1.580029    0.256741
C       0.806068   -0.566083    1.223488
C       0.772931   -2.938561    0.175065
C      -0.760045   -2.874060    0.241712
O      -1.327863   -1.946876   -0.667475
C      -1.336088   -0.600607   -0.228809
H       0.874533    2.041021    0.183983
H      -0.437029    1.914739   -0.998912
H      -0.801242    1.912035    0.733129
H       0.778460   -1.062134   -1.845369
H       1.943452    0.081477   -1.125684
H       2.549909   -1.742652    0.414232
H       1.531444    0.147967    1.624669
H       0.213989   -0.956240    2.057649
H       1.069449   -3.434674   -0.757777
H       1.112370   -3.584070    0.996400
H      -1.177696   -3.852233   -0.020111
H      -1.093220   -2.645122    1.266356
H      -1.939149   -0.504726    0.691498
H      -1.856304   -0.054900   -1.023771
