23

C       0.317778    0.768798    1.775161
C      -0.207543   -0.670535    1.661304
C      -0.559670   -1.242455    3.042847
C      -1.403705   -0.725377    0.724739
C      -1.231070   -0.709366   -0.776276
C      -1.792939   -1.934574   -0.096906
C      -1.006709   -3.240370   -0.105431
C      -1.455917   -4.195884    0.904082
C      -1.847765   -4.980666    1.726528
H       1.197310    0.817220    2.425758
H       0.595428    1.170457    0.795648
H      -0.446384    1.429591    2.201656
H       0.599068   -1.281498    1.234579
H       0.306464   -1.214409    3.712672
H      -1.358619   -0.654886    3.511278
H      -0.903827   -2.277571    2.968399
H      -2.251580   -0.152491    1.097620
H      -1.887250   -0.097309   -1.385484
H      -0.214801   -0.777510   -1.155842
H      -2.862162   -2.091591   -0.207454
H      -1.099130   -3.702887   -1.097519
H       0.062915   -3.042113    0.029077
H      -2.184882   -5.676528    2.454096
