15

C      -0.011647    1.543834    0.010495
C      -0.015139    0.012665    0.002279
C      -1.427388   -0.579912    0.012584
C      -1.436374   -2.102285    0.004457
O      -2.788908   -2.535944    0.015022
H       1.008019    1.941425    0.002889
H      -0.532901    1.944648   -0.865801
H      -0.516012    1.935131    0.900862
H       0.526625   -0.348947   -0.881924
H       0.543388   -0.358396    0.872018
H      -1.974802   -0.234023    0.898342
H      -1.991600   -0.224546   -0.858765
H      -0.906716   -2.472169   -0.889373
H      -0.889795   -2.481737    0.883973
H      -2.796085   -3.497374    0.010008
