19

C       0.011477    1.581512    0.020391
C       0.121541    0.054898    0.014624
C       0.581051   -0.499592   -1.340730
C       0.730188   -2.018442   -1.338582
C       1.402672   -2.705103   -2.542221
O       2.738278   -2.216750   -2.595667
C       2.464425   -3.334292   -1.718041
C       1.850837   -2.692410   -0.474662
O       2.057167   -2.770147    0.699441
H       0.977841    2.048269   -0.200030
H      -0.703532    1.931672   -0.732738
H      -0.322390    1.952024    0.994386
H       0.818763   -0.273636    0.793573
H      -0.850672   -0.384980    0.274293
H      -0.137963   -0.210961   -2.119773
H       1.541729   -0.053736   -1.621696
H      -0.216810   -2.509217   -1.074338
H       0.960084   -3.079462   -3.457307
H       3.048552   -4.236162   -1.855505
