17

N       0.070993    1.271878   -0.224705
C       0.002666   -0.042971    0.132929
O       0.950193   -0.666798    0.582538
C      -1.315683   -0.693189   -0.095131
N      -1.711568   -1.796470    0.820388
C      -1.550510   -2.083954   -0.608762
C      -2.858849   -1.667689   -1.281399
C      -2.633606   -0.207462   -0.721601
O      -3.574829    0.341952    0.155721
H       0.912124    1.770952    0.018294
H      -0.768985    1.807514   -0.367591
H      -0.844505   -2.068634    1.287873
H      -0.800204   -2.783265   -0.954272
H      -2.828499   -1.706101   -2.372075
H      -3.754694   -2.173874   -0.914057
H      -2.487049    0.512562   -1.531177
H      -3.585797   -0.244913    0.924363
