19

O      -0.042075    1.433131   -0.058615
C       0.019669    0.050731   -0.025548
C       0.266331   -0.771340    1.383721
C      -0.446951   -1.881861    0.559152
C      -1.722825   -2.731445    0.296195
O      -2.103459   -1.762762   -0.756618
C      -1.300205   -0.786508    0.010623
C       0.602371   -2.135073   -0.566242
C       0.951064   -0.682282   -0.986356
H       0.795173    1.777775   -0.384983
H       1.308856   -0.923713    1.678294
H      -0.314178   -0.344350    2.201190
H      -1.591680   -3.736725   -0.113434
H      -2.463030   -2.732167    1.104350
H      -1.972309   -0.329350    0.747305
H       1.464663   -2.680357   -0.170964
H       0.181154   -2.705495   -1.394313
H       0.704688   -0.466621   -2.030011
H       2.000926   -0.417336   -0.818739
