12

N      -0.085561    1.278208    0.010200
C      -0.028275    0.017365    0.003377
O       1.125316   -0.736339   -0.006741
C       0.787994   -2.097515   -0.011937
O       1.615487   -2.948793   -0.020826
C      -0.707580   -2.163360   -0.004209
C      -1.517047   -3.400030   -0.006221
O      -1.065698   -4.515913   -0.014388
C      -1.171064   -0.903343    0.004807
H       0.849922    1.690051    0.007273
H      -2.612383   -3.209451    0.000630
H      -2.195827   -0.558341    0.012124
