11

N      -0.205296   -1.182467   -0.211323
C      -0.067254   -0.041415   -0.096318
C       0.060543    1.408949    0.063734
C      -0.495780    1.948325    1.426447
N       0.674255    2.529297    2.094113
C       1.648021    2.378865    1.304376
O       1.459376    1.773811    0.097086
H      -0.394301    1.900508   -0.800372
H      -1.262371    2.712419    1.271569
H      -0.928706    1.152938    2.037866
H       2.669033    2.695315    1.481690
