19

C      -0.260071    1.540643    0.066911
C       0.059087    0.057173    0.023372
C       1.143833   -0.477678   -0.968430
O       1.925725    0.443565   -1.702094
C       1.864854   -1.044671    0.247789
C       2.462177   -2.417461    0.332328
C       2.146634    0.046470    1.200610
N       0.788096   -0.536119    1.206530
H       0.637046    2.162593    0.030434
H      -0.888282    1.819087   -0.786746
H      -0.813129    1.779301    0.981085
H      -0.868703   -0.513062   -0.085691
H       0.749872   -1.265888   -1.622988
H       1.420563    0.723836   -2.472092
H       3.394463   -2.468526   -0.242091
H       2.688297   -2.677265    1.370414
H       1.779122   -3.176324   -0.065052
H       2.709520   -0.215812    2.091619
H       2.311575    1.058334    0.845805
