18

C       0.077131    1.531276   -0.024514
C       0.195485    0.020327    0.057959
O       0.421557   -0.480324   -1.260290
C       0.594512   -1.839126   -1.320295
C       1.859246   -2.552352   -0.877747
C       1.375037   -2.667432   -2.300550
O       0.343472   -3.654011   -2.398847
C      -0.522360   -2.864669   -1.535927
H       0.994825    1.966469   -0.430222
H      -0.754110    1.817554   -0.674923
H      -0.098292    1.953027    0.969603
H       1.027684   -0.276466    0.712766
H      -0.723520   -0.419325    0.474404
H       2.704882   -1.883492   -0.746146
H       1.835671   -3.420781   -0.224496
H       1.949986   -2.430692   -3.187481
H      -0.886937   -3.435822   -0.674484
H      -1.364186   -2.453375   -2.104447
