16

C      -0.017281    1.519787   -0.006683
C      -0.006916    0.024964    0.046110
C      -0.031819   -0.821534   -1.020772
O      -0.013152   -2.165816   -0.643602
C       0.024382   -2.105167    0.696643
C       0.031270   -0.831213    1.212711
C       0.072133   -0.987770    2.636568
C       0.087066   -2.341107    2.885353
N       0.057325   -3.042915    1.677421
H       0.876085    1.941495    0.468464
H      -0.051025    1.881007   -1.038360
H      -0.884739    1.931119    0.522458
H      -0.062818   -0.656049   -2.084682
H       0.088813   -0.219028    3.393376
H       0.116442   -2.881548    3.817359
H       0.060756   -4.041174    1.571149
