20

C      -0.068991    1.532961    0.014018
N       0.038417    0.080209    0.094793
C      -1.241046   -0.642668    0.019707
C      -1.411063   -1.772698    1.005709
C      -0.678669   -2.878677    0.912108
C       0.393575   -2.999584   -0.136225
C       1.530975   -1.987212    0.084351
C       1.297751   -0.468862    0.046614
O       2.296824    0.234680    0.008003
H       0.931997    1.954001    0.074467
H      -0.533673    1.842404   -0.931419
H      -0.681431    1.914068    0.839423
H      -2.017682    0.104994    0.191987
H      -1.401712   -1.014521   -1.004208
H      -2.159308   -1.656028    1.783461
H      -0.807589   -3.690429    1.622654
H       0.827162   -4.004024   -0.132498
H      -0.037607   -2.857096   -1.136507
H       1.990959   -2.173227    1.062534
H       2.326090   -2.151956   -0.649264
