19

C       0.026032    1.546025   -0.048567
C       0.043979    0.025277   -0.006480
O       0.672555   -0.430400   -1.195606
C       0.655702   -1.835678   -1.329590
C       1.438505   -2.520045   -0.190223
C       0.875165   -2.055657    1.137465
O       0.535787   -2.793002    2.033649
C       0.759487   -0.529093    1.242433
O       2.066486    0.035841    1.294881
H       1.046622    1.932276   -0.048123
H      -0.483843    1.884845   -0.953590
H      -0.501666    1.946148    0.822226
H      -0.991096   -0.360524    0.028471
H      -0.382361   -2.209106   -1.343368
H       1.108515   -2.062523   -2.298247
H       1.387775   -3.609369   -0.255692
H       2.483667   -2.198105   -0.254244
H       0.173285   -0.284627    2.138538
H       2.464323   -0.221926    2.132909
