19

C      -0.073624    1.543382    0.079207
C       0.014488    0.018718   -0.003280
C       0.720368   -0.500859   -1.277897
C       0.880338   -2.035042   -1.262539
C       1.654529   -2.588045   -2.453530
O       1.783550   -3.986255   -2.255108
C       0.001613   -0.061434   -2.480896
N      -0.575041    0.279227   -3.423533
H       0.922190    1.999985    0.068335
H      -0.640544    1.955163   -0.761118
H      -0.570888    1.851339    1.003363
H       0.570730   -0.372649    0.855997
H      -0.988298   -0.420817    0.045210
H       1.719572   -0.045268   -1.325093
H       1.406050   -2.314917   -0.343373
H      -0.105733   -2.510285   -1.226713
H       1.118543   -2.360417   -3.386624
H       2.641859   -2.099569   -2.514278
H       2.183235   -4.366731   -3.042452
