18

C      -0.086812    1.361336    0.501583
C       1.223351    1.683765   -0.285966
C       1.379882    0.180062   -0.641799
C       0.020624   -0.129374    0.079586
C      -0.594923   -0.590344   -1.283750
C      -1.170139    0.468123   -2.241430
O       0.142004    0.759953   -2.788032
C       0.749106   -0.280647   -1.992135
H       0.024526    1.489330    1.581411
H      -0.988517    1.898814    0.197341
H       1.096544    2.328824   -1.156623
H       2.029594    2.079503    0.335125
H       2.317006   -0.308331   -0.369587
H      -0.062913   -0.870911    0.875496
H      -1.069878   -1.570980   -1.288016
H      -1.832003    0.054083   -3.012806
H      -1.646671    1.353827   -1.806941
H       1.319039   -0.987166   -2.602892
