14

N       0.031312    1.331927   -0.079493
C       0.022177   -0.037093   -0.042164
O       1.069715   -0.683784   -0.084834
C      -1.275344   -0.698758    0.010762
C      -1.408002   -2.080396    0.058647
N      -0.461901   -3.027525    0.129283
O      -2.691602   -2.429298    0.064116
N      -3.492805   -1.244243    0.014103
C      -2.628629   -0.266356   -0.015187
H       0.931806    1.771367    0.026991
H      -0.775011    1.861213    0.205480
H       0.478218   -2.679491   -0.023770
H      -0.699460   -3.984511   -0.068045
H      -3.015368    0.743456   -0.065094
