21

C       0.120328    1.578524    0.101939
C      -0.144863    0.085980   -0.130614
C       0.639191   -0.474747   -1.308931
C       2.146890   -0.825013   -1.056077
O       1.700483   -2.047114   -0.388356
C       0.680929   -2.047795   -1.453618
C      -0.485840   -2.967601   -1.228670
C       1.569477   -2.193408   -2.708152
C       2.571999   -1.357296   -2.434560
H       1.176190    1.766440    0.324732
H      -0.141326    2.172221   -0.781096
H      -0.467222    1.957410    0.943739
H       0.102548   -0.486843    0.768493
H      -1.216938   -0.063547   -0.317339
H       0.430544    0.078285   -2.230289
H       2.826907   -0.210264   -0.467235
H      -1.024031   -2.708052   -0.313433
H      -1.184405   -2.910876   -2.069932
H      -0.139991   -4.002392   -1.140815
H       1.374214   -2.815597   -3.569856
H       3.446859   -1.083185   -3.005515
