19

C      -0.060871    1.536421   -0.070376
C       0.006260    0.017676    0.003112
O       0.606221   -0.441536   -1.220167
C       0.922665   -1.797736   -1.169442
O       2.008539   -2.040797   -0.295653
C       1.730348   -1.654529    1.027537
C       2.256877   -0.290025    1.398823
O       3.011297    0.416851    0.470034
C       0.764092   -0.495070    1.220251
H       0.948962    1.949848   -0.107828
H      -0.611396    1.847998   -0.962501
H      -0.572873    1.933438    0.811393
H      -1.014128   -0.399213    0.045880
H       0.048487   -2.393008   -0.853982
H       1.254035   -2.099377   -2.164814
H       1.760031   -2.482831    1.730291
H       2.619769   -0.139642    2.411170
H       3.004681   -0.106638   -0.344124
H       0.171165   -0.512620    2.130386
