19

C       0.022426    1.455162   -0.080511
C       1.346441    0.746675    0.028638
C       2.025456    0.537043    1.365171
C       0.887002    0.041688    2.302696
C      -0.092513   -0.736748    1.378036
C       0.028660   -0.045880    0.036639
C       0.482190   -0.742486   -1.288028
O       0.728046    0.259684   -2.281135
C       1.737385    0.012443   -1.295659
H      -0.306292    2.010528    0.791570
H      -0.250603    1.899559   -1.028569
H       2.787363   -0.246128    1.259139
H       2.533783    1.421849    1.763729
H       1.259316   -0.569012    3.130288
H       0.374791    0.897909    2.753589
H       0.241207   -1.777438    1.274616
H      -1.108773   -0.768849    1.785851
H       0.218046   -1.735063   -1.635814
H       2.734845   -0.221351   -1.651114
