25

C       0.057789    1.575185    0.028139
C       0.039176    0.054741    0.014404
C       1.040413   -0.692209   -0.919416
C       1.332254   -1.657133    0.239391
C       1.147755   -3.151666    0.195477
C       2.520119   -2.557752    0.450637
C       3.552341   -2.652704   -0.657032
C       3.093458   -2.669738    1.850697
C       0.646668   -0.706827    1.232352
H       1.069526    1.953459    0.215843
H      -0.278565    1.987287   -0.930127
H      -0.597084    1.975461    0.810542
H      -0.978307   -0.303376   -0.174216
H       0.635788   -1.118055   -1.842098
H       1.904002   -0.066941   -1.176124
H       0.632819   -3.628496    1.025108
H       0.961105   -3.616309   -0.768931
H       3.094108   -2.560183   -1.646053
H       4.306649   -1.861522   -0.564879
H       4.078681   -3.614200   -0.622249
H       3.600325   -3.631956    1.991910
H       3.829616   -1.879228    2.042025
H       2.314480   -2.589126    2.614500
H       1.361895   -0.087067    1.786421
H      -0.057439   -1.143792    1.946288
