16

C      -0.028441    1.555848    0.071725
C       0.115877    0.070585   -0.003969
N      -0.763184   -0.866428    0.758330
C       0.700435   -0.959341    0.967080
C       1.199726   -1.861140   -0.176765
C       0.674217   -0.762879   -1.143114
O       0.842642   -0.541402   -2.305778
C       1.315914   -0.715828    2.221129
C       1.841756   -0.513998    3.285079
H       0.806202    2.049031   -0.434573
H      -0.954974    1.882944   -0.411627
H      -0.045921    1.890079    1.114271
H      -1.147759   -0.319785    1.531268
H       2.287151   -1.945222   -0.243038
H       0.733006   -2.846012   -0.232379
H       2.306473   -0.338290    4.223751
