21

C      -0.131740    1.549937   -0.042817
C       0.022180    0.029612   -0.018749
O      -1.262152   -0.598246   -0.016426
C       0.956748   -0.535099   -1.138587
C       1.975021   -1.280883   -0.282012
C       1.242026   -1.956197    0.924058
C       2.490096   -1.702674    1.802879
C       2.308176   -0.409291    0.973582
C       0.766582   -0.496420    1.208766
H       0.839359    2.050985    0.019142
H      -0.612105    1.878565   -0.973097
H      -0.750023    1.884782    0.795778
H      -1.756138   -0.264065   -0.772598
H       0.397536   -1.197555   -1.806744
H       1.418908    0.252326   -1.744402
H       2.785038   -1.823318   -0.774478
H       0.610291   -2.844188    0.890208
H       2.326308   -1.624443    2.881591
H       3.377552   -2.304350    1.584179
H       2.924553    0.492340    0.997537
H       0.355116   -0.248894    2.189322
