12

O       0.029404   -0.076094    0.002739
C       0.046951    1.122325    0.008910
O      -1.185510    1.789153    0.028015
N      -1.343404    3.152990    0.036777
C      -0.261906    3.879371    0.026303
C       1.072839    3.319760    0.006188
C       1.218780    1.985013   -0.002308
C      -0.441413    5.293151    0.035709
C      -0.535239    6.491813    0.042976
H       1.919261    3.996849   -0.001532
H       2.182210    1.490533   -0.017397
H      -0.638263    7.549401    0.049819
