17

C       0.168933    1.548645   -0.091287
C       0.111749    0.096849   -0.024810
C       0.061253   -1.104882    0.032603
C       0.014101   -2.551699    0.101214
O       0.120870   -3.078376    1.449543
C      -1.229656   -3.572279    1.435276
C      -1.388953   -3.250974   -0.073438
C      -2.530806   -2.479494   -0.503873
C      -3.491345   -1.847459   -0.854385
H       1.198574    1.903162   -0.210180
H      -0.413906    1.925745   -0.938731
H      -0.238062    2.001729    0.819174
H       0.789938   -2.987849   -0.539344
H      -1.286439   -4.630863    1.709244
H      -1.891910   -2.986872    2.083377
H      -1.282864   -4.147986   -0.689187
H      -4.336049   -1.284095   -1.165003
