21

C      -0.038235    1.359523    0.028052
O      -0.043608   -0.046996   -0.016432
C       0.663427   -0.563291   -1.116073
C       0.662254   -2.096801   -1.018395
C       1.214560   -2.720296   -2.309678
O       0.993829   -4.107673   -2.263535
C       1.531833   -4.786105   -3.372851
C       1.402149   -2.556595    0.154149
C       2.041247   -2.919188    1.104699
H       0.983772    1.761547    0.111447
H      -0.508012    1.800034   -0.866155
H      -0.608955    1.659363    0.909996
H       0.185781   -0.255086   -2.062377
H       1.699569   -0.186274   -1.127929
H      -0.384132   -2.414640   -0.927143
H       0.702141   -2.275832   -3.180597
H       2.290105   -2.497485   -2.406829
H       1.086535   -4.441357   -4.320061
H       2.623538   -4.656909   -3.440423
H       1.308940   -5.847834   -3.244399
H       2.589411   -3.248097    1.952272
