22

C      -0.085412    1.547235   -0.012664
C      -0.012390    0.011825    0.007307
C      -1.446910   -0.534083   -0.087897
C       0.916295   -0.545203   -1.078482
C       2.304062   -0.581946   -0.536290
C       2.252470   -0.084891    0.905424
C       0.815895   -0.580859    1.194821
C       0.986051   -2.044438    0.741234
N       1.506984   -1.834952   -0.635322
H       0.896667    2.023496   -0.006772
H      -0.605847    1.888722   -0.914225
H      -0.649720    1.920435    0.849368
H      -1.950035   -0.123639   -0.970240
H      -1.488378   -1.621464   -0.170750
H      -2.032995   -0.237466    0.789401
H       0.689597   -0.448015   -2.134672
H       3.192146   -0.515143   -1.153102
H       2.994566   -0.574367    1.544632
H       2.387776    0.994203    0.996634
H       0.423442   -0.405178    2.196182
H       1.725845   -2.589788    1.335488
H       0.067469   -2.632740    0.716705
