17

C      -0.049555    1.452862    0.104447
C       1.280121    0.749154    0.025414
C       2.058167    0.439412    1.325533
C       1.112132   -0.479297    2.056354
C       0.030550   -0.758529    1.286308
O      -0.851239   -1.561611    1.922863
C      -0.293844   -1.808411    3.152641
C       0.899699   -1.162988    3.295925
C      -0.023280   -0.061777   -0.009415
H      -0.367110    1.879919    1.050239
H      -0.359403    2.013416   -0.772033
H       1.851690    0.874983   -0.886499
H       3.017747   -0.042302    1.098757
H       2.290913    1.355170    1.882126
H      -0.856901   -2.471030    3.788746
H       1.533040   -1.198377    4.169038
H      -0.383745   -0.547626   -0.908439
