17

N      -0.296293    1.407735   -0.105263
C      -0.189435    0.154612   -0.029239
O      -1.293366   -0.621045   -0.148470
C      -1.100087   -2.024151   -0.050613
C      -0.700685   -2.593744    1.337855
N      -2.088229   -3.065324    1.559264
C      -2.468728   -2.737858    0.167535
C      -0.320289   -2.545071   -1.244392
O       0.276580   -3.590468   -1.250013
H       0.616823    1.844720    0.000897
H       0.736625   -0.414422    0.131775
H       0.054066   -3.381074    1.237696
H      -0.366513   -1.847705    2.066371
H      -2.155810   -4.050336    1.784821
H      -3.318072   -2.053062    0.085820
H      -2.622438   -3.595488   -0.497270
H      -0.373060   -1.886361   -2.139518
