15

O      -0.128160    0.000222    0.052476
C      -0.016169    1.205661    0.020385
C       1.238763    1.906053   -0.004378
C       2.291861    2.505441   -0.025536
C       3.488673    3.243491   -0.050934
C       4.743522    2.772677   -0.046242
C       5.713921    3.911239   -0.080569
O       4.916572    5.090053   -0.105643
C       3.534341    4.760219   -0.089493
H      -0.904565    1.869138    0.007634
H       5.033504    1.730786   -0.021615
H       6.374989    3.918269    0.800988
H       6.364720    3.873651   -0.968970
H       3.036256    5.160285   -0.984606
H       3.046323    5.205100    0.789871
