21

C      -0.020944    1.590881   -0.158373
C       1.483238    1.599244    0.230582
C       1.375602    0.116746    0.696580
C      -0.027118    0.038257   -0.039369
C       0.304562   -0.684955   -1.334954
C       1.503289   -1.255458   -1.248190
C       2.763728   -1.595421   -2.011699
C       3.516386   -0.801381   -0.877257
C       2.240993   -0.964994    0.032193
H      -0.652419    2.060875    0.601143
H      -0.282494    2.012193   -1.133386
H       2.134948    1.723347   -0.637449
H       1.790486    2.321741    0.990204
H       1.322943    0.030091    1.783997
H      -0.880059   -0.388315    0.500579
H      -0.324368   -0.615748   -2.216737
H       3.016602   -2.660856   -1.982547
H       2.852109   -1.240492   -3.041392
H       4.446823   -1.237222   -0.505910
H       3.694570    0.235947   -1.168539
H       2.366707   -1.842342    0.679390
