17

N       0.201417    1.437095   -0.181288
C       0.063344    0.009729    0.023538
C      -1.391347   -0.531834    0.043547
O      -1.954015   -0.191612   -1.206159
C      -1.401333   -2.070907    0.261375
C      -2.731487   -2.630497    0.065639
C      -3.848361   -3.028547   -0.134000
C      -2.138852    0.133339    1.140395
N      -2.695513    0.673756    1.997083
H      -0.313980    1.710815   -1.012437
H      -0.201689    1.949023    0.598217
H       0.569427   -0.517031   -0.793619
H       0.555679   -0.273210    0.959875
H      -2.824140   -0.609326   -1.264771
H      -0.701864   -2.507282   -0.461183
H      -1.026689   -2.303237    1.264527
H      -4.829755   -3.407439   -0.283051
