20

C       0.006582    1.478320    0.017617
C       1.229210    0.631350   -0.004858
N      -0.113653    0.014990   -0.019211
C      -0.308169   -0.521343   -1.382960
C       0.771845    0.099553   -2.297362
C       1.929507    0.416402   -1.331838
C       3.002105    1.430287   -1.797016
O       4.025044    0.416256   -1.828967
C       3.121347   -0.578372   -1.313519
H      -0.312184    1.932001    0.951384
H      -0.249373    2.053505   -0.869020
H       1.812921    0.506532    0.903821
H      -0.183829   -1.607999   -1.320453
H      -1.328516   -0.324743   -1.725993
H       1.073407   -0.569674   -3.107110
H       0.413825    1.021541   -2.767437
H       2.835340    1.879542   -2.784549
H       3.234459    2.227212   -1.078100
H       3.420421   -0.927244   -0.315673
H       3.034193   -1.444988   -1.981465
