16

C      -0.004820   -1.279596   -0.049328
C      -0.016114   -0.077458   -0.017286
C      -0.027710    1.368050    0.043923
C      -0.263757    2.102859    1.389158
C       0.919997    1.692991    2.294580
C       1.728034    2.945595    1.983977
C       2.019740    1.680265    1.232963
N       1.314458    2.091097   -0.022377
C       0.706750    3.206776    0.855888
H       0.005211   -2.340846   -0.085883
H      -0.658487    1.787795   -0.747663
H      -1.247800    2.273641    1.823311
H       0.928916    1.065718    3.174235
H       2.349634    3.585044    2.594279
H       2.879888    1.025469    1.241059
H       0.425194    4.145338    0.383525
