22

C      -0.036603    1.538998   -0.058026
N       1.232230    0.796321    0.014102
C      -0.040877    0.052994    0.025043
C      -0.377211   -0.642369    1.334759
C       0.607012   -1.756206    1.758118
C       1.236374   -2.589316    0.622233
C       0.357549   -2.869128   -0.603572
O       0.374939   -1.809550   -1.550408
C      -0.439193   -0.698124   -1.237455
H      -0.273736    2.127120    0.824663
H      -0.317666    2.007656   -0.998292
H       1.658081    0.734259   -0.908322
H      -0.425809    0.098626    2.139008
H      -1.390252   -1.054158    1.242217
H       1.423237   -1.305413    2.331022
H       0.080583   -2.421812    2.452587
H       2.133286   -2.085382    0.245924
H       1.571809   -3.547700    1.036685
H       0.752909   -3.735082   -1.144202
H      -0.679675   -3.107813   -0.313754
H      -1.494003   -1.011920   -1.150179
H      -0.359669   -0.034337   -2.105435
