19

C       0.129769    1.382120   -0.255399
C       0.100083   -0.118787   -0.052431
O       1.124566   -0.772606   -0.021736
C      -1.269647   -0.759780    0.114079
C      -1.892305   -1.066187   -1.265049
O      -1.286956   -2.270391   -1.690890
C      -1.049540   -3.089084   -0.546426
C      -1.207229   -2.194664    0.715369
O      -0.242609   -2.410956    1.710850
H       1.130170    1.700250   -0.550459
H      -0.605094    1.702249   -1.000585
H      -0.140207    1.873373    0.687548
H      -1.913305   -0.091040    0.693652
H      -2.984226   -1.175700   -1.156397
H      -1.703869   -0.304156   -2.027403
H      -1.753211   -3.931813   -0.531656
H      -0.031462   -3.485828   -0.607026
H      -2.170561   -2.399432    1.193448
H       0.604480   -2.156017    1.316571
