18

C      -0.023188    1.562606   -0.021319
C       0.028857    0.031632    0.040073
C       0.781430   -0.455568    1.284308
C      -1.409561   -0.547022   -0.014396
O      -2.156856   -0.072265   -1.126907
C      -1.414383   -2.014106    0.011349
C      -1.416448   -3.222608   -0.024892
C      -1.420874   -4.587578   -0.057833
N      -1.421311   -5.748945   -0.086717
H       0.988471    1.975921   -0.071161
H      -0.584722    1.907035   -0.891794
H      -0.506392    1.970453    0.874398
H       0.552616   -0.340778   -0.852295
H       0.863395   -1.545284    1.314358
H       1.793503   -0.040868    1.301501
H       0.275198   -0.128412    2.200193
H      -1.957515   -0.185628    0.866032
H      -1.758277   -0.431844   -1.928179
