17

O      -0.619539    1.163878    0.032517
C      -0.089590   -0.114713    0.057320
C      -0.284236   -0.967073    1.281656
C       1.115126   -0.583609    0.837857
O       1.858970   -1.517404    0.094324
C       1.097812   -1.902694   -1.054559
C       0.054199   -0.819143   -1.265171
C      -0.935868   -0.770625   -2.337246
O       0.216443    0.092711   -2.367422
H      -0.265950    1.578258   -0.767517
H      -0.660765   -0.431612    2.146883
H      -0.629156   -1.992251    1.193875
H       1.733111    0.060798    1.450192
H       1.769131   -1.986135   -1.913218
H       0.619768   -2.877678   -0.884175
H      -0.950975   -1.543374   -3.104491
H      -1.884703   -0.267959   -2.159031
