19

C      -0.145841    1.548014    0.005946
O       1.085200    1.627387    0.765788
C       1.430641    0.258807    0.412240
C       1.727803   -0.668562    1.587177
C       0.344952   -1.033943    2.175631
C      -0.633933   -0.896586    1.012999
O      -0.620921   -1.987789    0.050481
C      -0.402055   -1.063865   -1.043860
C      -0.020249    0.030390   -0.054211
H      -1.000417    1.963298    0.552487
H      -0.056469    2.055608   -0.964992
H       2.206955    0.247673   -0.363878
H       2.233464   -1.560977    1.202897
H       2.393985   -0.200035    2.316943
H       0.316969   -2.034978    2.614970
H       0.055573   -0.321993    2.956115
H      -1.662089   -0.675317    1.327773
H       0.373390   -1.413122   -1.735361
H      -1.327849   -0.873554   -1.605150
