17

C      -0.266432    1.561252    0.311629
C       0.088463    0.243059   -0.351375
O       0.749668    0.153228   -1.362777
N      -0.414359   -0.869803    0.305931
C      -0.213871   -2.172257   -0.121452
N      -0.708851   -3.134664    0.538160
C      -0.491380   -4.503138    0.078688
C       0.299271   -4.695703   -1.138721
C       0.951606   -4.824013   -2.140584
H       0.167540    2.373677   -0.269576
H      -1.352702    1.690499    0.362926
H       0.121529    1.598465    1.335064
H      -0.961839   -0.757008    1.146988
H       0.381989   -2.243852   -1.032024
H      -0.023909   -5.057380    0.903784
H      -1.478219   -4.966559   -0.055064
H       1.525616   -4.951434   -3.025162
