16

N      -0.094610    1.454454    0.088622
C      -0.012170    0.023628    0.013212
C       0.899461   -0.693057   -1.035678
O       1.650175   -1.331603    0.043006
C       0.958387   -0.656616    1.017571
O       1.139455   -0.676375    2.189731
C      -1.403882   -0.582296    0.100774
C      -2.469486    0.036398    0.892078
O      -2.443258    0.154879   -0.541980
H       0.796151    1.904433   -0.082683
H      -0.782375    1.794857   -0.575753
H       0.435276   -1.439787   -1.683451
H       1.541882   -0.024219   -1.613535
H      -1.439215   -1.658490   -0.069405
H      -3.269100   -0.587414    1.285757
H      -2.256702    0.953394    1.433019
