19

O       0.059732    1.398395   -0.201268
C       0.022321    0.001506    0.002644
C       0.505374   -0.428806    1.411731
O      -0.326539   -1.498364    1.821982
C      -1.624290   -1.190755    1.338670
C      -1.406023   -0.650062   -0.087037
C      -2.444258    0.321234   -0.596465
C      -3.804046    0.425094   -0.050870
O      -2.807054    1.394470    0.287997
H      -0.609193    1.804616    0.363354
H       0.672458   -0.410623   -0.772813
H       1.541375   -0.774482    1.438587
H       0.409206    0.438010    2.087792
H      -2.222259   -2.104001    1.379750
H      -2.100176   -0.422115    1.968542
H      -1.364045   -1.493383   -0.784650
H      -2.292932    0.649203   -1.624355
H      -4.609796    0.795866   -0.681971
H      -4.117907   -0.225500    0.763283
