21

C      -0.197885    1.409952   -0.112850
C       1.222442    0.871697    0.002687
C       0.061191   -0.062035    0.068184
C      -0.372321   -0.835065    1.299580
C      -1.510564   -1.695020    0.722950
C      -0.999631   -1.970358   -0.681875
C      -0.609696   -3.338226   -1.168380
C      -1.803017   -2.606615   -1.768678
O      -0.149039   -0.898034   -1.054765
H      -0.606017    1.978311    0.716914
H      -0.524334    1.731733   -1.095307
H       1.818848    0.847969   -0.902527
H       1.783010    1.069318    0.910735
H       0.444571   -1.472667    1.656964
H      -0.685120   -0.186354    2.120556
H      -1.700494   -2.609059    1.289714
H      -2.440993   -1.116875    0.685305
H       0.285797   -3.403245   -1.776169
H      -0.794250   -4.195827   -0.529176
H      -2.802530   -2.961547   -1.538037
H      -1.684337   -2.200444   -2.766997
