20

C       0.047059    1.528564   -0.036317
C       0.051613    0.004565    0.096285
O       0.675407   -0.408104    1.312333
C      -1.347142   -0.595914   -0.020134
C      -2.115463   -0.545060   -1.388827
C      -2.290033   -2.068353   -1.324096
C      -0.945190   -2.733229   -1.279831
C      -1.492462   -2.124896   -0.017943
H       1.061320    1.922268    0.072129
H      -0.347350    1.844986   -1.007394
H      -0.580561    1.983160    0.741206
H       0.691060   -0.417829   -0.688053
H       0.157966   -0.045715    2.040377
H      -1.976157   -0.156591    0.765334
H      -3.050777    0.014387   -1.323326
H      -1.550233   -0.173988   -2.251718
H      -3.188919   -2.606525   -1.598833
H      -0.959733   -3.818230   -1.302328
H      -0.095149   -2.295334   -1.798170
H      -1.669230   -2.729041    0.863269
