21

C       1.341028    1.357248    1.270747
O       1.020766    0.002051    1.073033
C       1.588066   -0.844105    2.055437
C       1.235127   -2.266538    1.701672
C       1.072679   -3.343398    2.731158
C       1.257953   -3.129989    4.220192
N      -0.077576   -2.855655    1.968944
C      -1.123299   -2.065808    2.601373
H       2.428690    1.530949    1.235134
H       0.866642    1.926857    0.467896
H       0.968922    1.730978    2.238614
H       2.686926   -0.734022    2.065665
H       1.230470   -0.554905    3.054306
H       1.636660   -2.548855    0.728289
H       1.373391   -4.345167    2.421669
H       0.997180   -2.125827    4.557725
H       0.643951   -3.840379    4.784897
H       2.302818   -3.311027    4.494643
H      -0.808184   -1.434447    3.444246
H      -1.565767   -1.412525    1.844135
H      -1.900730   -2.744417    2.967406
