15

O       0.045402   -0.023915   -0.385693
C      -0.003241    1.131365   -0.071515
N      -1.120116    1.920135    0.094538
C      -0.825231    3.313078    0.321213
C      -1.023983    3.819222    1.777604
C       0.448595    3.421803    2.102539
C       0.705917    3.200708    0.588051
O       1.108806    1.893355    0.198329
H      -2.007051    1.572219   -0.226858
H      -1.184573    3.959254   -0.485995
H      -1.191184    4.898834    1.812572
H      -1.807831    3.320267    2.350069
H       1.064095    4.180476    2.589113
H       0.538103    2.486485    2.658328
H       1.357952    3.927936    0.103935
