20

C       0.090016    1.485180   -0.019452
C      -0.027167   -0.017471   -0.001439
C      -0.607005   -0.752633    1.158582
N       0.841723   -0.787710    0.920529
C       1.289196   -2.001290    0.205721
C       0.403246   -2.177097   -1.051918
C      -0.098008   -0.761741   -1.316164
C      -0.966641   -0.389368   -2.435334
O       0.430343   -0.075940   -2.461092
H       0.905857    1.801608   -0.673635
H      -0.834002    1.947591   -0.384456
H       0.280998    1.857357    0.989664
H      -0.906141   -0.193134    2.040796
H      -1.196984   -1.648305    0.977324
H       2.333042   -1.839416   -0.081204
H       1.257428   -2.864339    0.877240
H       0.956064   -2.556518   -1.913344
H      -0.434192   -2.857384   -0.868955
H      -1.287851   -1.151824   -3.144574
H      -1.635488    0.465916   -2.346590
