19

C      -0.070668    1.545950   -0.184660
O       1.204909    2.051305    0.225476
C       2.102737    0.970358    0.445187
C       2.167787    0.532216    1.935913
C       1.304928   -0.742890    1.897869
C      -0.159330   -0.399943    1.539615
C      -0.026132    0.040606    0.048318
C       1.471198   -0.302528   -0.193781
O       1.774079   -1.369945    0.690380
H      -0.854296    2.052325    0.390644
H      -0.232407    1.776282   -1.248218
H       3.076704    1.252143    0.040209
H       3.189027    0.276642    2.230443
H       1.792712    1.320606    2.591809
H       1.431581   -1.426045    2.737397
H      -0.784169   -1.291591    1.627937
H      -0.582594    0.380930    2.177188
H      -0.709860   -0.501719   -0.605741
H       1.770438   -0.550782   -1.210606
