17

N      -0.080989    1.236161    0.333246
C       0.046604    0.030283    0.027819
N       1.228563   -0.805051   -0.357510
C       0.229085   -1.717342   -1.072521
C      -0.758535   -2.962691   -1.034516
C      -0.790404   -3.480483    0.397659
C      -0.882693   -2.090763    1.078682
C      -0.839834   -1.197689   -0.197299
O      -1.845916   -1.932129   -1.039827
H       0.825504    1.706210    0.379945
H       1.739712   -1.176498    0.438595
H       0.152851   -1.316689   -2.083005
H      -0.830932   -3.644686   -1.881470
H      -1.666141   -4.106899    0.577520
H       0.106639   -4.047046    0.662420
H      -1.832145   -1.921194    1.590029
H      -0.075378   -1.887978    1.785812
