17

O      -0.025878    1.261588    0.618214
C       0.036130   -0.026184    0.044155
C      -1.363130   -0.594863   -0.187517
C      -1.697143   -2.137205   -0.055896
C      -2.063421   -2.728493    1.326539
C      -1.792516   -2.013323    2.658221
N      -1.730158   -0.595864    2.201514
C      -2.256124   -0.627309    1.037316
N      -2.997958   -1.850764    0.619713
H      -0.405193    1.127719    1.498884
H       0.568715    0.071481   -0.907363
H       0.600053   -0.725314    0.678411
H      -1.829783   -0.241870   -1.111502
H      -1.685131   -2.796663   -0.922399
H      -2.297330   -3.791263    1.321649
H      -2.595908   -2.234867    3.374825
H      -0.836221   -2.248203    3.134400
