18

C       0.010345    1.528595    0.223252
C       1.484561    1.869544   -0.047247
O       1.907586    0.902338   -1.010916
C       1.327515   -0.320259   -0.670757
C      -0.043427    0.005517   -0.043792
C       1.430827   -1.302507   -1.857239
N       2.470466   -2.272868   -1.492823
C       2.778350   -1.996040   -0.295350
O       2.159098   -0.975341    0.344345
H      -0.296904    1.794245    1.236886
H      -0.637211    2.065820   -0.474430
H       1.644268    2.858921   -0.480584
H       2.090610    1.779512    0.863878
H      -0.179043   -0.581052    0.866166
H      -0.848483   -0.256408   -0.733903
H       0.485921   -1.824754   -2.041767
H       1.703183   -0.758469   -2.765475
H       3.512572   -2.525040    0.302728
