19

O      -0.266606    1.264481   -0.107842
C       0.002012   -0.102218    0.021578
C      -0.384641   -0.825854    1.301828
C      -1.197288   -1.011834    0.031136
O      -2.485216   -0.493918   -0.050937
C      -0.780990   -2.029951   -1.044151
C      -0.246738   -1.044356   -2.146362
C       0.860675   -0.783990   -1.061067
C       0.718211   -2.297413   -0.737768
H       0.329971    1.756411    0.464793
H       0.231204   -1.600654    1.742820
H      -0.884574   -0.190768    2.027060
H      -2.392984    0.463207   -0.156852
H      -1.481227   -2.834967   -1.264077
H       0.131432   -1.553518   -3.036761
H      -0.887844   -0.205567   -2.425551
H       1.824743   -0.332477   -1.298900
H       1.015042   -2.676229    0.240704
H       1.177454   -2.910843   -1.515736
