16

C      -0.060931    1.671712    0.570771
C      -0.049628    0.200904    0.214141
C      -1.322197   -0.319489   -0.382690
O      -1.552702   -1.485519   -0.595140
C       1.171624   -0.530417   -0.355729
N       2.431877   -0.036140    0.183076
C       2.015067   -0.266311    1.512638
O       2.537046   -0.038657    2.563610
C       0.697131   -0.873643    1.029682
H       0.925542    2.026743    0.874777
H      -0.385521    2.274165   -0.284793
H      -0.748526    1.866690    1.399967
H      -2.057586    0.470215   -0.653394
H       1.125845   -1.135777   -1.250327
H       2.903929    0.807654   -0.121362
H       0.189744   -1.761590    1.376594
