15

O      -1.098059    1.892856    0.607449
C      -0.067919    1.285915    0.469618
C       1.264193    1.955750    0.106569
O       2.246943    1.266296   -0.025255
C       1.208697    3.448944   -0.116745
O       2.491796    4.088010   -0.247580
C       2.119862    4.606887   -1.530991
C       1.889513    3.503119   -2.507651
C       0.790576    3.885965   -1.532771
H       0.019307    0.185078    0.587144
H       0.603669    3.929402    0.659409
H       2.400425    5.627132   -1.761328
H       1.695145    3.814682   -3.529154
H       2.437592    2.572176   -2.397877
H      -0.200565    4.203023   -1.822320
