16

O      -0.231772    0.001132    0.195351
C      -0.147437    1.203433    0.104725
N      -1.197476    2.094913   -0.008913
C      -0.741901    3.422187   -0.060295
C       0.591648    3.480594   -0.002238
C       1.133000    2.074591    0.101363
C       1.986383    1.797288    1.323353
C       2.963614    0.706563    1.337803
O       3.381335    2.070424    1.200700
H      -2.160062    1.801566   -0.017265
H      -1.461833    4.223830   -0.143817
H       1.196783    4.373330   -0.026807
H       1.724583    1.799411   -0.781181
H       1.549184    2.114913    2.270490
H       3.226323    0.229264    2.279825
H       3.082765    0.086792    0.451340
