14

N      -0.120498   -1.143656   -0.108760
C      -0.075455    0.010732   -0.032833
C       0.028221    1.418798    0.078374
C      -0.705400    2.453587    0.864918
C       0.596461    3.135690    1.282348
C       1.223588    2.461543    0.032581
C       0.432919    3.104990   -1.116465
N      -0.822224    2.433362   -0.628302
H      -1.629931    2.337920    1.414183
H       0.625545    4.228570    1.330472
H       0.972358    2.707824    2.214106
H       2.285816    2.238528   -0.023277
H       0.382792    4.198209   -1.157549
H       0.673548    2.699508   -2.100996
