19

C       0.374857    1.392117   -0.364660
C       0.098168   -0.040760   -0.036434
C       0.927551   -1.313794   -0.355628
C      -0.464781   -1.735602    0.170700
C      -1.128991   -3.092066    0.172267
C      -0.452114   -4.039106    1.049034
C       0.122438   -4.802221    1.777821
C      -0.346962   -0.687766    1.302823
O      -1.074856   -0.695471   -0.690756
H       1.256614    1.741899    0.181429
H       0.560962    1.511563   -1.436246
H      -0.476547    2.020882   -0.087233
H       1.095273   -1.500591   -1.417795
H       1.800683   -1.532250    0.263769
H      -2.174738   -2.967299    0.480490
H      -1.147784   -3.471632   -0.857164
H       0.621589   -5.485725    2.418878
H       0.407279   -0.847809    2.076936
H      -1.298082   -0.325015    1.696534
