23

C      -0.708595    1.017901    0.010279
O      -0.348550   -0.349481    0.060072
C       0.636824   -0.635959    1.024892
O       0.188407   -0.400400    2.337773
C      -0.369924   -1.603786    2.889280
C      -0.123555   -2.746265    1.875709
C      -1.404533   -3.164822    1.142994
C       0.979756   -2.128853    0.972768
C       1.152825   -2.714652   -0.425963
H       0.160214    1.649403   -0.231754
H      -1.455660    1.125905   -0.779223
H      -1.131054    1.357386    0.963149
H       1.500076    0.028474    0.866346
H       0.125871   -1.786406    3.849878
H      -1.439168   -1.455397    3.083188
H       0.279222   -3.621168    2.396335
H      -1.841056   -2.319003    0.606296
H      -1.211560   -3.964636    0.421641
H      -2.144163   -3.539902    1.858476
H       1.929270   -2.225545    1.514030
H       0.257603   -2.572495   -1.033036
H       1.985833   -2.229155   -0.945165
H       1.374668   -3.785710   -0.375559
