23

C      -0.165866    1.511538    0.070406
C      -0.011489   -0.010073   -0.032746
C       0.741889   -0.418868   -1.324027
C       0.051976   -0.043735   -2.552277
C      -0.538121    0.267317   -3.552822
C       0.695212   -0.586962    1.191612
C       0.002902   -0.485221    2.581846
C       0.531647   -1.907315    2.908322
C       0.757708   -2.130676    1.389021
H       0.814227    1.999977    0.134629
H      -0.684297    1.913397   -0.804326
H      -0.735222    1.789457    0.962537
H      -1.014176   -0.456911   -0.085905
H       1.742153    0.036370   -1.313480
H       0.901596   -1.504367   -1.320255
H      -1.048898    0.538666   -4.443039
H       1.708268   -0.167211    1.255630
H       0.295108    0.335179    3.241651
H      -1.087686   -0.475836    2.478945
H       1.477398   -1.871441    3.456622
H      -0.142067   -2.593001    3.427256
H      -0.102261   -2.624676    0.922902
H       1.666204   -2.653248    1.079119
