20

C      -0.290344    1.275297   -0.128141
N      -0.276254   -0.175853   -0.270556
C       0.612804   -0.722997   -0.965840
O       1.647667   -0.191918   -1.708130
C       1.987684   -1.518075   -2.231297
C       0.863037   -2.159978   -1.379088
C       1.315155   -3.100132   -0.264119
C      -0.354679   -2.709997   -2.140897
O      -1.473562   -2.812442   -1.288631
H       0.487609    1.784310   -0.708133
H      -1.268596    1.656258   -0.439572
H      -0.166763    1.534304    0.928984
H       1.855568   -1.547873   -3.316350
H       3.010119   -1.793004   -1.961878
H       2.100019   -2.649408    0.350321
H       0.466185   -3.345073    0.377406
H       1.703204   -4.032811   -0.688457
H      -0.562688   -2.064862   -3.010969
H      -0.146087   -3.717878   -2.518794
H      -1.568766   -1.953140   -0.848723
