19

C      -0.028821    1.544482    0.001600
C      -0.015917    0.035385   -0.005381
C      -0.065187   -0.680523   -1.204378
C      -0.023748   -2.070752   -1.195664
C       0.064890   -2.796377   -0.007833
C       0.105262   -4.304113    0.005029
C       0.110592   -2.069977    1.192076
O       0.192570   -2.684536    2.409706
C       0.069478   -0.677793    1.189711
H       0.990280    1.950729    0.012892
H      -0.527258    1.942292   -0.887019
H      -0.541980    1.937069    0.884558
H      -0.137785   -0.148604   -2.147657
H      -0.065399   -2.613955   -2.135712
H       1.026291   -4.691311    0.462484
H      -0.740265   -4.738120    0.556647
H       0.061658   -4.702339   -1.011375
H       0.209877   -3.638075    2.283764
H       0.103853   -0.163491    2.144774
