20

C      -0.289169    1.446300   -0.123579
C      -0.009209   -0.047829   -0.018504
C       1.224760   -0.569511   -0.726627
N       1.639084   -0.524485   -1.909336
O       1.794830   -1.117964    0.403261
C       0.662497   -0.652432    1.251279
C       1.164471    0.284743    2.331719
C      -0.026223   -1.893910    1.812508
O       0.848876   -2.659034    2.615854
H       0.585071    2.046302    0.140788
H      -0.560769    1.693601   -1.153450
H      -1.118723    1.739259    0.527410
H      -0.901818   -0.613348   -0.307184
H       2.545546   -0.985500   -2.005796
H       1.811553    1.060642    1.917367
H       0.321212    0.767205    2.836792
H       1.726602   -0.284548    3.075676
H      -0.866887   -1.598123    2.450114
H      -0.428547   -2.488656    0.977866
H       1.600907   -2.888516    2.056521
