11

C      -0.011545    1.500263    0.043404
C       0.002684    0.011024   -0.027294
C      -0.077468   -0.810082   -1.102478
O      -0.022662   -2.106982   -0.664247
C       0.089668   -1.993532    0.676472
N       0.110744   -0.780630    1.118687
H       0.906837    1.877332    0.505272
H      -0.101974    1.940646   -0.952807
H      -0.848919    1.853499    0.654108
H      -0.169652   -0.665894   -2.165024
H       0.149797   -2.913028    1.237554
