16

O      -0.003896    1.441569   -0.072431
C       0.026926    0.047237   -0.009257
C       1.026993   -0.558510   -1.008031
C       2.364290   -0.018980   -0.777126
N       3.391872    0.461843   -0.553289
C      -0.108260   -0.672633    1.382131
C      -1.531633   -0.085813    1.523074
C      -1.362319   -0.640230    0.087890
O      -0.687708   -1.828242    0.659105
H       0.894541    1.778278    0.036483
H       1.032041   -1.645372   -0.906693
H       0.720920   -0.305208   -2.029111
H       0.646863   -0.879700    2.140696
H      -2.197730   -0.675790    2.151886
H      -1.636837    0.990178    1.649923
H      -2.103591   -0.806194   -0.694359
