16

C       0.288533    1.492985   -0.015283
C      -0.112670    0.009557   -0.045070
O      -1.516381   -0.130911   -0.017053
C       0.516343   -0.764992   -1.208426
C       1.852533   -1.230069   -0.609608
O       1.623888   -1.362840    0.812558
C       0.497798   -0.711007    1.166401
O       0.039515   -0.717958    2.275481
H       1.372556    1.629387   -0.094101
H      -0.192294    2.007285   -0.851801
H      -0.046473    1.953004    0.918624
H      -1.767947   -0.124592    0.917518
H      -0.123915   -1.619763   -1.441258
H       0.650361   -0.169786   -2.113817
H       2.186626   -2.201447   -0.978031
H       2.656355   -0.501788   -0.760893
