16

C      -0.183200    1.559394    0.055145
C       0.142956    0.061345   -0.062384
C       0.769261   -0.507110    1.177665
C       2.043364   -0.974029    1.325023
O       2.278078   -1.401754    2.587942
C       1.118996   -1.205882    3.281817
C       0.167035   -0.661236    2.466503
C       1.093351   -1.576658    4.643177
N       1.048353   -1.872980    5.762442
H       0.722608    2.143530    0.243159
H      -0.643824    1.928300   -0.865986
H      -0.878673    1.750281    0.878487
H      -0.776157   -0.491801   -0.291480
H       0.817523   -0.102554   -0.909779
H       2.872399   -1.066565    0.641744
H      -0.840859   -0.407782    2.756147
