13

C      -0.017634    1.548595   -0.002536
C      -0.017192    0.007358    0.032696
C       0.758185   -0.528202    1.252789
C      -1.382133   -0.517684    0.007755
C      -2.507964   -0.940056    0.004786
H       1.009444    1.926396   -0.026328
H      -0.545146    1.922171   -0.883935
H      -0.512430    1.953399    0.885606
H       0.493662   -0.349042   -0.872659
H       0.289685   -0.193454    2.183347
H       0.778334   -1.621025    1.257837
H       1.789525   -0.161817    1.235750
H      -3.499982   -1.318102   -0.007236
