18

C      -0.118754    1.560873    0.091309
C       0.330387    0.109763   -0.107251
C       0.738086   -0.559105    1.190170
O      -0.394211   -0.696870    2.124918
C      -0.250192   -2.067125    2.211168
O      -0.891604   -2.830824    2.854621
C       0.901870   -2.080364    1.233551
C       1.226891   -3.046754    0.158219
N       2.091491   -2.912757    1.338779
H       0.686912    2.171519    0.513096
H      -0.417593    2.010613   -0.859549
H      -0.970396    1.608969    0.775236
H      -0.471756   -0.478082   -0.568184
H       1.187605    0.069871   -0.792750
H       1.544779   -0.012297    1.692355
H       0.676588   -3.980894    0.099465
H       1.559289   -2.640449   -0.793771
H       2.919286   -2.362530    1.119328
