23

C      -0.766078    1.152643   -0.088952
C       0.185766   -0.034539   -0.097727
C       1.593662    0.141006   -0.743330
C       2.156471   -0.695350    0.401871
C       3.070010   -1.837324    0.341636
O       3.472281   -0.584626    0.917159
C       0.870815   -0.521934    1.238840
C       1.054112    0.577160    2.290699
C       0.276108   -1.780350    1.864217
H      -0.300287    2.044518    0.341283
H      -1.077948    1.403129   -1.108995
H      -1.672435    0.936960    0.487900
H      -0.316417   -0.893810   -0.556275
H       1.736584   -0.227562   -1.761990
H       1.945948    1.176477   -0.692343
H       2.967138   -2.660789    1.047195
H       3.554092   -2.093661   -0.600633
H       1.478112    1.490834    1.863856
H       0.100192    0.834315    2.763057
H       1.741749    0.236438    3.070666
H       0.899811   -2.149753    2.686586
H      -0.719922   -1.578162    2.275528
H       0.177136   -2.584643    1.127825
