18

C      -0.233651    1.462010    0.008988
C       0.023575   -0.023931    0.030810
O      -1.171357   -0.796379    0.332538
C      -0.480387   -1.543232    1.355348
C       0.814896   -0.729329    1.160580
C       1.995655   -1.454640    0.494097
N       1.652834   -1.416411   -0.918791
C       0.658515   -0.545400   -1.275493
O       0.327846   -0.254722   -2.403484
H       0.705005    2.017644   -0.090178
H      -0.861484    1.703489   -0.853325
H      -0.740275    1.778031    0.924571
H      -0.968713   -1.438797    2.330836
H      -0.399912   -2.609549    1.107104
H       1.116460   -0.122649    2.013724
H       2.945057   -0.938683    0.692065
H       2.098013   -2.485483    0.853839
H       2.226792   -1.839231   -1.631752
