20

C      -0.228155    1.441682   -0.014047
N      -0.205711   -0.007646   -0.111833
C       0.585329   -0.571820   -0.919684
C       0.583664   -2.078276   -1.053445
C       1.859383   -2.629809   -1.614283
C       2.794108   -1.845511   -2.136631
C       2.653924   -0.357043   -2.230970
C       2.833578    0.157738   -3.659242
O       1.383946    0.139415   -1.771138
H       0.706870    1.923570   -0.322280
H      -1.034178    1.845084   -0.640771
H      -0.455399    1.722210    1.019125
H       0.360382   -2.502367   -0.070178
H      -0.262304   -2.366403   -1.695278
H       1.995800   -3.707040   -1.580236
H       3.720659   -2.253157   -2.531214
H       3.421790    0.113215   -1.595599
H       2.094899   -0.299086   -4.323749
H       2.707043    1.243109   -3.685261
H       3.834612   -0.085556   -4.027956
