20

C      -0.085829    1.391432   -0.113069
C      -0.234094   -0.117389   -0.237518
O      -1.176218   -0.721072    0.246666
N       0.760221   -0.751365   -0.924841
C       0.736134   -2.187225   -1.149758
C      -0.156225   -2.602827   -2.330930
C      -0.147387   -4.096864   -2.532065
C      -0.173973   -4.714892   -3.862396
O       1.040756   -4.652100   -3.113433
H       0.857865    1.776689   -0.508194
H      -0.913524    1.873166   -0.641464
H      -0.170201    1.664466    0.941500
H       1.488037   -0.205846   -1.353949
H       1.761028   -2.528485   -1.321078
H       0.368325   -2.657273   -0.232898
H      -1.178742   -2.264095   -2.131192
H       0.189671   -2.111785   -3.247635
H      -0.537940   -4.683515   -1.698003
H      -0.594374   -5.711410   -3.990991
H      -0.211818   -4.079489   -4.746704
