13

O       0.107349    1.334414    0.066486
C       0.074314   -0.003761    0.032277
N       0.087950   -0.595892   -1.153187
C       0.055057   -1.931372   -1.190354
C       0.007393   -2.731095   -0.054138
C      -0.006668   -2.103809    1.185833
C       0.026963   -0.709770    1.253821
C       0.014138   -0.024370    2.503539
N       0.002903    0.510877    3.529972
H       0.137115    1.632422   -0.854229
H       0.067694   -2.377332   -2.181258
H      -0.017884   -3.810099   -0.138046
H      -0.043357   -2.676610    2.105292
