21

C       0.358381    1.357175    0.418670
C      -0.358043    0.209780   -0.316942
C       0.426487   -0.337870   -1.419467
C       1.100860   -0.765185   -2.321124
C       1.891739   -1.317562   -3.432927
C       2.164229   -2.824802   -3.179570
C       1.110656   -1.145274   -4.763505
C       3.175632   -0.604069   -3.530370
C       4.232565   -0.042767   -3.638226
H       1.307980    1.015395    0.838955
H       0.571438    2.183135   -0.265137
H      -0.265189    1.735153    1.234416
H      -0.593835   -0.591298    0.395499
H      -1.323650    0.565892   -0.698627
H       1.215884   -3.364580   -3.109314
H       2.752639   -3.241591   -4.001765
H       2.716147   -2.964073   -2.247849
H       0.912872   -0.089422   -4.958883
H       1.693292   -1.552865   -5.594378
H       0.156191   -1.675296   -4.702444
H       5.162448    0.463288   -3.720149
