19

C      -0.227212    1.005379   -1.800656
C      -0.014924   -0.201729   -0.913019
C       1.326653   -0.627514   -0.375832
C       2.622358    0.100894   -0.659861
C       0.271856   -0.068600    0.588732
C       0.431707    1.286785    1.263611
C      -0.375650   -1.045282    1.430878
N      -0.894873   -1.825472    2.110593
H       0.455858    1.828006   -1.579928
H      -0.077818    0.729351   -2.850016
H      -1.249108    1.385704   -1.701216
H      -0.681680   -1.025218   -1.153301
H       1.455396   -1.703487   -0.297498
H       2.495970    1.180352   -0.763874
H       3.349335   -0.073398    0.140096
H       3.062441   -0.267813   -1.592630
H       0.923170    2.009892    0.612441
H      -0.544600    1.693812    1.542850
H       1.029466    1.193378    2.175080
