19

O       0.078877    1.331177    0.124941
C       0.088438   -0.065128    0.050890
C      -0.424007   -0.773293    1.293554
O      -0.882677    0.058725    2.320945
C      -1.263439   -0.761770    0.026581
O      -2.349871    0.125319    0.065895
C      -1.488438   -1.994022   -0.786080
C      -2.827528   -2.687455   -0.770688
C      -2.370604   -1.955663   -2.009221
H      -0.797947    1.602210   -0.188343
H       0.926833   -0.475137   -0.505033
H       0.034069   -1.696832    1.636338
H      -0.469297    0.921553    2.156745
H      -2.502799    0.303347    1.008171
H      -0.611567   -2.633406   -0.842120
H      -2.843466   -3.771490   -0.781170
H      -3.616750   -2.225433   -0.189213
H      -2.861715   -1.016853   -2.236574
H      -2.070143   -2.534568   -2.875366
