15

C       0.222601    1.469330   -0.046475
C      -0.012227   -0.000168    0.000883
N      -0.441604   -0.675824   -1.033526
O      -0.518883   -1.993531   -0.557947
C      -0.121242   -1.954524    0.717416
N       0.205865   -0.766870    1.128574
C      -0.107159   -3.198850    1.507297
C      -1.054624   -4.296087    1.234785
O       0.305742   -4.387036    0.831017
H       1.267535    1.692547    0.188280
H      -0.015250    1.859518   -1.036895
H      -0.396777    1.975579    0.699836
H       0.287373   -3.061901    2.510733
H      -1.349618   -4.946126    2.056722
H      -1.775118   -4.183951    0.427669
