23

C      -0.472800    1.332903   -0.114963
C       0.096059   -0.076891   -0.058524
C       1.458832   -0.353564   -0.724078
O       1.970607   -0.988093    0.462240
C       0.785937   -0.620905    1.236572
C       1.155613    0.415445    2.293372
C       0.126637   -1.868954    1.825915
C       0.986217   -2.626999    2.843087
O       0.378046   -3.841975    3.258770
H       0.263848    2.087775    0.175400
H      -0.801120    1.569743   -1.132977
H      -1.342521    1.440317    0.542086
H      -0.663960   -0.786056   -0.400446
H       1.463050   -1.027492   -1.588886
H       2.028983    0.550661   -0.982290
H       1.614112    1.295950    1.837104
H       0.275584    0.737715    2.860294
H       1.880780   -0.003588    2.996324
H      -0.831228   -1.596775    2.287385
H      -0.100769   -2.550750    0.995621
H       1.986372   -2.798518    2.419546
H       1.112789   -2.042148    3.758884
H       0.328651   -4.420274    2.490972
