17

O      -0.270898    1.319008   -0.381012
C      -0.164733   -0.058900   -0.188085
C      -0.252581   -0.642754    1.214110
C      -1.402036   -0.773509    0.263357
C      -2.748776   -0.086976    0.413685
C      -3.577962   -0.796283   -0.664298
C      -2.868748   -2.133192   -0.858097
O      -3.260909   -3.118863   -1.407976
O      -1.626532   -2.064119   -0.289568
H       0.533224    1.732861   -0.049971
H       0.464684   -0.591574   -0.900244
H       0.331392   -1.530683    1.428936
H      -0.376131    0.050269    2.040526
H      -3.164277   -0.275221    1.408896
H      -2.661367    0.990235    0.271564
H      -4.625675   -0.959380   -0.409603
H      -3.549088   -0.264395   -1.621757
