23

C       0.042754    1.514447    0.076050
C      -0.000566   -0.018196    0.045735
C       0.728399   -0.629478    1.248514
C      -1.447931   -0.501867   -0.030647
O      -1.461924   -1.908274   -0.187720
C      -2.758284   -2.453168   -0.234990
C      -2.633260   -3.963166   -0.441376
C      -3.955943   -4.672819   -0.267452
O      -4.461633   -5.400782   -1.081497
H       1.076202    1.873347    0.100729
H      -0.442415    1.951206   -0.803360
H      -0.462931    1.905970    0.966935
H       0.496194   -0.363527   -0.870785
H       0.280692   -0.287623    2.189936
H       0.672048   -1.720085    1.224185
H       1.783215   -0.337075    1.257398
H      -1.991978   -0.216531    0.887786
H      -1.967504   -0.022669   -0.877607
H      -3.302960   -2.239007    0.701776
H      -3.341040   -2.002733   -1.055786
H      -2.221638   -4.196723   -1.425760
H      -1.943729   -4.345335    0.324434
H      -4.456544   -4.475695    0.710429
