16

O      -0.149263    1.451073   -0.271246
C       0.010043    0.077687    0.087631
C      -1.371191   -0.523558    0.034109
O      -2.284098    0.141224    0.855476
C      -1.884683   -1.142145   -1.236352
C      -1.563997   -2.020836   -0.022005
C      -0.451514   -2.924320   -0.036134
C       0.480417   -3.685649   -0.046913
H       0.627884    1.934111    0.022448
H       0.689546   -0.445161   -0.596923
H       0.406066   -0.017872    1.108444
H      -2.160714    1.080330    0.662490
H      -2.934582   -1.002843   -1.464197
H      -1.219827   -1.213194   -2.089319
H      -2.431240   -2.357753    0.538301
H       1.299274   -4.361196   -0.055121
