15

O       0.337304    1.088972   -0.507987
C       0.127988   -0.131536    0.109240
C      -0.083448   -0.220488    1.634710
O      -1.234816   -1.077598    1.464266
C      -1.309327   -0.812261    0.036270
C      -2.346793    0.167246   -0.282611
C      -3.131956    1.045234   -0.526839
C      -1.429094   -2.021260   -0.760867
C      -1.484747   -3.019440   -1.426955
H      -0.449510    1.634517   -0.372178
H       0.889868   -0.821010   -0.256287
H       0.699348   -0.702604    2.227325
H      -0.350404    0.743399    2.088280
H      -3.863477    1.783853   -0.747991
H      -1.546789   -3.903134   -2.013303
