25

C       0.023236    1.524762   -0.031637
C       0.077963   -0.003922    0.094864
C       0.738178   -0.426766    1.414096
C      -1.321055   -0.612618   -0.035104
C      -2.080127   -0.524340   -1.405737
C      -2.277915   -2.049732   -1.384237
C      -3.537471   -2.749334   -1.807079
C      -0.931223   -2.715943   -1.357091
C      -1.483279   -2.140811   -0.076013
H       1.025673    1.962872    0.018641
H      -0.430388    1.835091   -0.978497
H      -0.570320    1.962578    0.780301
H       0.695550   -0.387587   -0.729312
H       0.161737   -0.063305    2.273889
H       0.806520   -1.516275    1.494179
H       1.751142   -0.019412    1.500099
H      -1.955329   -0.195834    0.756908
H      -3.016315    0.035428   -1.334430
H      -1.509223   -0.134139   -2.256465
H      -3.667931   -2.712339   -2.896023
H      -3.522922   -3.804535   -1.514105
H      -4.423390   -2.288609   -1.354032
H      -0.951138   -3.800486   -1.412883
H      -0.072869   -2.268469   -1.853438
H      -1.670765   -2.773454    0.784747
