22

C      -0.082954    1.561663    0.210392
C       0.043771    0.044718    0.120133
C       0.703034   -0.543121   -1.167816
C       0.772747    0.259993   -2.455557
N       1.969717   -0.680877   -0.418304
C       2.815945   -1.827026   -0.673087
C       1.269688   -0.592955    0.868025
C       1.964485    0.233636    1.927294
O       1.637611    0.259670    3.086717
H       0.855080    2.066911   -0.037801
H      -0.853106    1.927862   -0.476081
H      -0.368989    1.863989    1.222731
H      -0.906670   -0.422631    0.383506
H       0.258136   -1.531820   -1.380965
H       1.194376    1.253469   -2.284435
H       1.403519   -0.251329   -3.190952
H      -0.223051    0.372200   -2.898102
H       3.206911   -1.782469   -1.694720
H       3.671748   -1.819951    0.010384
H       2.286607   -2.790521   -0.548876
H       0.993456   -1.566188    1.306622
H       2.806143    0.850564    1.536121
