15

O       0.079202   -0.100237    0.000751
C       0.006519    1.115090    0.008489
C      -1.211342    1.947538    0.030381
N      -1.257029    3.249541    0.038094
C      -0.098941    3.988798    0.025571
C       1.082778    3.323994    0.005110
C       2.597037    3.425827   -0.016060
C       2.576258    1.852268   -0.024337
N       1.110170    1.959310   -0.002652
H      -2.151516    1.400026    0.040783
H      -0.187694    5.066849    0.032679
H       3.022273    3.885498   -0.910107
H       3.047833    3.875794    0.870370
H       2.960890    1.372383   -0.926549
H       2.986631    1.362634    0.861140
