18

C       0.093998    1.489560    0.086236
C      -0.065213   -0.035303    0.029937
O       0.581747   -0.551908   -1.149141
C       1.605371   -1.486543   -0.796145
C       1.560643   -1.563036    0.702824
C       0.618114   -0.754267    1.168327
C      -1.575637   -0.375404    0.029668
N      -1.995113   -1.070144   -1.054371
O      -2.290204   -0.033052    0.953812
H       1.149625    1.753608    0.189450
H      -0.293024    1.940490   -0.832337
H      -0.467861    1.887299    0.933837
H       1.404416   -2.457506   -1.274168
H       2.575649   -1.132655   -1.176463
H       2.217042   -2.200475    1.281176
H       0.323338   -0.595354    2.196075
H      -1.348328   -1.248048   -1.803730
H      -2.973314   -1.286030   -1.147597
