16

C      -0.055223    1.527942   -0.008688
C      -0.000925    0.019711    0.001769
C       0.048666   -0.685474   -1.207663
C       0.103987   -2.067253   -1.174592
F       0.151176   -2.745680   -2.327807
C       0.111999   -2.788874    0.011983
C       0.061876   -2.078925    1.210299
O       0.064486   -2.697663    2.423215
C       0.005502   -0.682669    1.203914
H       0.849580    1.952379   -0.458328
H      -0.905059    1.889377   -0.597740
H      -0.148367    1.931474    1.002348
H       0.044282   -0.174627   -2.163362
H       0.155360   -3.872365   -0.015566
H       0.105035   -3.650702    2.292960
H      -0.033146   -0.162425    2.154100
