19

C       0.072838    1.493185   -0.111377
C      -0.064235    0.009841    0.090248
C      -1.318300   -0.726513   -0.376188
C      -1.188489   -2.142971    0.230880
C      -0.323435   -1.946442    1.474986
C      -0.734128   -2.308382    2.838388
O       0.229270   -3.088474    2.123847
C       0.536062   -0.748530    1.200757
O       1.123618   -0.775343   -0.112228
H       1.019286    1.852766    0.299516
H       0.050353    1.738577   -1.179006
H      -0.749202    2.030805    0.372779
H      -2.200548   -0.207007    0.016331
H      -1.403934   -0.739495   -1.467353
H      -2.151907   -2.604313    0.457395
H      -0.652131   -2.802223   -0.456030
H      -0.346328   -1.757319    3.695212
H      -1.701777   -2.784044    2.994779
H       1.141842   -0.301491    1.984767
