16

O      -0.013594    0.084574   -0.723597
C      -0.018381    1.202070   -0.225451
C      -1.323490    1.869964   -0.009910
C      -1.637011    2.978655    0.670613
C      -0.787151    3.826172    1.528215
N      -0.037785    3.179607    2.622274
C       0.721362    3.828895    1.536603
C       1.583761    2.984469    0.688522
C       1.281831    1.874667    0.004576
H      -2.122854    1.333067   -0.513568
H      -2.676401    3.299649    0.632156
H      -1.234707    4.790891    1.758411
H      -0.043438    3.780158    3.443578
H       1.162845    4.795219    1.771742
H       2.622348    3.309213    0.661619
H       2.088680    1.340668   -0.490150
