17

O      -0.154806    1.528359    0.139384
C      -0.035635    0.151396   -0.005047
C       0.434971   -0.432124   -1.364164
C      -0.830539   -1.350799   -1.399179
C      -1.264302   -0.796301   -0.024566
O      -0.731793   -1.571534    1.072303
C       0.392838   -0.667626    1.255614
C       1.688134   -1.317865    1.288309
C       2.775489   -1.832194    1.298936
H       0.665840    1.939525   -0.154061
H       0.433196    0.329378   -2.147833
H       1.404273   -0.934204   -1.349425
H      -1.521052   -1.106267   -2.209874
H      -0.645030   -2.425938   -1.393930
H      -2.298139   -0.486390    0.140149
H       0.246889   -0.059560    2.158587
H       3.731435   -2.294753    1.321875
