18

O       0.011712    1.395207    0.169822
N       0.082462    0.003923    0.034032
C      -1.061913   -0.557762   -0.049972
C      -2.397739    0.158537   -0.103083
O      -3.015427   -0.050319   -1.363120
C      -3.810285   -1.210493   -1.507350
C      -3.222975   -2.491265   -0.893664
O      -1.837923   -2.632887   -1.129114
C      -1.029160   -2.069041   -0.111998
H       0.941733    1.644741    0.168259
H      -3.043680   -0.166484    0.727208
H      -2.240002    1.232040   -0.007956
H      -4.815940   -1.057906   -1.078107
H      -3.923407   -1.336263   -2.588504
H      -3.427119   -2.533844    0.187351
H      -3.728412   -3.350562   -1.350247
H      -0.003675   -2.393234   -0.298199
H      -1.342565   -2.471333    0.868260
