17

O       0.095368    1.400039    0.224117
C      -0.006771    0.002628    0.063686
C      -1.415801   -0.519927   -0.185438
C      -1.321831   -1.937470   -0.818906
O      -2.534234   -1.705479   -1.615044
C      -1.757789   -0.458560   -1.706131
C      -0.437369   -1.258890   -1.906508
C       0.705245   -0.511687   -1.251067
O       1.088500    0.572699   -2.091849
H       0.089454    1.769611   -0.669357
H       0.431250   -0.446300    0.961709
H      -2.205976   -0.317164    0.535268
H      -1.203002   -2.908932   -0.337787
H      -2.170759    0.355344   -2.300531
H      -0.277818   -1.773784   -2.851986
H       1.568251   -1.154229   -1.037586
H       1.895227    0.955457   -1.730308
