19

C       0.058032    1.542358   -0.053013
C       0.046293    0.087360    0.001379
C       0.037563   -1.117385    0.044694
C       0.056283   -2.565402    0.071077
C      -0.079162   -3.325660    1.441423
C      -1.577559   -2.916792    1.457451
C      -1.296658   -3.369697   -0.003686
C      -0.538613   -4.568017    0.611635
O       0.362134   -5.224999   -0.242559
H       0.811053    1.908926   -0.759697
H      -0.913041    1.938216   -0.371359
H       0.285825    1.977461    0.926725
H       0.836178   -2.967386   -0.576980
H       0.627906   -3.296481    2.272290
H      -2.254142   -3.544476    2.044289
H      -1.782046   -1.856119    1.597354
H      -1.992520   -3.390458   -0.842803
H      -1.165882   -5.281690    1.161628
H       0.912758   -5.806872    0.290299
