19

C      -0.056144    1.578704    0.056487
C       1.494461    1.440464   -0.017102
C       1.767176    0.817638    1.366790
C       0.768449   -0.380191    1.281044
O       1.394025   -1.646544    1.041523
C       2.410357   -1.593022    0.080262
O       2.059406   -0.895635   -1.100357
C       1.191791    0.194874   -0.931299
C      -0.020839    0.029651    0.020598
H      -0.467360    2.067187    0.943204
H      -0.503263    2.002332   -0.845935
H       2.135336    2.256566   -0.348769
H       2.797515    0.504618    1.537680
H       1.495473    1.503025    2.174445
H       0.165074   -0.519477    2.179052
H       3.326987   -1.151417    0.502053
H       2.616375   -2.625862   -0.213596
H       0.905394    0.507797   -1.936961
H      -0.880949   -0.585955   -0.239017
