19

C       0.133647    1.465973    0.058932
C      -0.051248   -0.064242    0.040303
N       0.564686   -0.617165    1.249199
C      -1.510179   -0.358343   -0.016251
N      -2.644635   -0.583600   -0.024463
C       0.588728   -0.636960   -1.231531
C       2.038166   -1.073340   -1.249389
C       0.932735   -2.086745   -1.413908
O       0.624605   -2.976389   -0.373898
H       1.202455    1.689423    0.087756
H      -0.311354    1.927764   -0.825842
H      -0.342013    1.899674    0.943648
H       0.112188   -0.225231    2.069362
H       0.431686   -1.624279    1.262337
H       0.213981   -0.144919   -2.123995
H       2.655316   -0.819037   -2.104076
H       2.538899   -1.061861   -0.287825
H       0.768979   -2.501023   -2.407844
H       1.338568   -3.619631   -0.310240
