15

N      -0.046375    1.367413    0.035216
C      -0.048575    0.019084    0.005523
N      -1.145389   -0.651945    0.023517
C      -1.065044   -2.040717    0.009094
C      -2.273898   -2.764458    0.002099
N      -2.316547   -4.090004   -0.011416
C      -1.137132   -4.723293   -0.018097
C       0.062136   -4.020365   -0.010959
N       0.108653   -2.688636    0.003103
H       0.807277    1.889046   -0.037946
H      -0.923932    1.861569    0.031247
H       0.939437   -0.447339   -0.025771
H      -3.214485   -2.220950    0.007886
H      -1.152689   -5.809306   -0.028591
H       1.014843   -4.546133   -0.015778
