20

C      -0.480209    1.494992    0.008797
C      -0.008282    0.042176   -0.007233
C       0.963950   -0.316363   -1.153745
C       1.604912   -1.645766   -0.710178
C       1.756684   -1.502287    0.799177
O       2.869691   -0.610392    1.162964
C       1.999280    0.358890    1.615947
N       2.231979    1.478164    2.134907
C       0.745532   -0.418274    1.262239
H       0.360819    2.178144    0.156130
H      -0.974852    1.750025   -0.934224
H      -1.194164    1.672369    0.819495
H      -0.886133   -0.613247   -0.097016
H       0.460066   -0.388285   -2.121164
H       1.732253    0.460224   -1.244354
H       0.927251   -2.484362   -0.913387
H       2.558428   -1.865339   -1.198157
H       1.833055   -2.436198    1.358146
H       3.237150    1.647088    2.210271
H       0.094742   -0.634604    2.109987
