13

N      -0.056814    1.213650   -0.019753
C      -0.064098   -0.034856    0.035755
O       0.992944   -0.947721    0.149694
C       0.068870   -2.039696   -0.037469
C      -0.914231   -2.096545    1.095035
C      -0.608361   -1.702719    2.439056
C      -0.363807   -1.384192    3.571551
C      -1.108207   -1.099752   -0.073723
H       0.891142    1.584829    0.060035
H       0.377547   -2.858890   -0.672193
H      -1.606833   -2.931844    1.005045
H      -0.141058   -1.094975    4.568570
H      -2.008697   -1.074355   -0.668570
