16

C      -0.095755    1.391011   -0.316894
C       0.015117   -0.097091    0.078737
C       0.737084   -0.293277    1.412567
C      -1.370389   -0.724964    0.111836
O      -1.909947   -1.147547    1.109245
C      -2.065410   -0.803164   -1.174356
C      -2.655790   -0.898031   -2.226595
C      -3.316615   -1.002230   -3.416281
N      -3.874897   -1.088555   -4.431202
H       0.903976    1.823835   -0.409531
H      -0.610669    1.521918   -1.272656
H      -0.640489    1.954435    0.447455
H       0.564675   -0.611613   -0.722781
H       0.197168    0.203672    2.222986
H       0.816700   -1.352130    1.670874
H       1.744839    0.127892    1.358236
