20

C       0.136608    1.571424   -0.001832
C       0.047709    0.041748   -0.028014
C      -1.429988   -0.411487   -0.021143
C       0.797279   -0.631615   -1.166806
C       2.279939   -0.586611   -1.170913
N       1.598441   -1.795848   -0.686967
C       1.491144   -1.825838    0.774558
C       0.719866   -0.574791    1.218261
O       0.628179   -0.153923    2.341547
H       1.172190    1.916148   -0.071718
H      -0.422892    2.008168   -0.835135
H      -0.281810    1.949103    0.935627
H      -1.942250   -0.032937   -0.911934
H      -1.518588   -1.502639   -0.022230
H      -1.943749   -0.025321    0.863503
H       0.266447   -0.789890   -2.102059
H       2.825647   -0.710934   -2.101472
H       2.780040    0.049825   -0.441073
H       0.927843   -2.715972    1.082603
H       2.470325   -1.876102    1.259835
