16

N       0.158983    1.482942    0.023594
C      -0.020038    0.033672   -0.012109
C       0.618752   -0.613319   -1.181124
N       1.114454   -1.092304   -2.109674
C       0.524134   -0.542431    1.302261
C       0.753064   -2.063005    1.419146
C       2.241696   -1.682281    1.561574
O       1.933486   -0.270993    1.435725
H       1.149504    1.679694    0.144085
H      -0.125752    1.900489   -0.856556
H      -1.093936   -0.188683   -0.060592
H      -0.048432   -0.079598    2.114853
H       0.299278   -2.528794    2.294128
H       0.505886   -2.641874    0.528235
H       2.699850   -1.906116    2.531134
H       2.901444   -2.024325    0.758103
