21

C      -0.578550    0.756081   -1.719429
C      -0.004184    0.084030   -0.466069
C      -1.084200   -0.242949    0.536798
O      -1.965988   -1.334834    0.258695
C      -1.116361   -1.439948    1.403459
C      -0.032737   -2.493897    1.418853
O       0.727491   -2.535980    2.360454
C      -0.002956   -3.496317    0.280483
C       1.194056   -4.440748    0.341233
H       0.214688    1.000510   -2.431438
H      -1.294491    0.095742   -2.217701
H      -1.099931    1.685606   -1.466589
H       0.545102   -0.819904   -0.744324
H       0.717364    0.751057    0.022271
H      -1.604608    0.634127    0.929973
H      -1.614436   -1.339878    2.368755
H      -0.953186   -4.048458    0.332321
H      -0.063338   -2.960576   -0.672931
H       1.145867   -5.177439   -0.465274
H       2.134146   -3.889738    0.247938
H       1.223803   -4.970146    1.296529
