15

O      -0.083485    1.403728    0.092723
C       0.048074    0.036786    0.038029
C      -0.071894   -0.836687   -1.206670
C       0.959322   -1.946382   -1.195070
C       1.040819   -2.144305    0.303937
C       0.806454   -0.871351    1.033177
N      -0.281478   -1.901149    0.968485
C      -1.008454   -1.018193   -0.024326
H       0.653392    1.802545   -0.384148
H      -0.461704   -0.388702   -2.112141
H       0.616286   -2.848649   -1.712374
H       1.923096   -1.645173   -1.620844
H       1.625689   -2.945498    0.742907
H       1.251828   -0.570508    1.974706
H      -2.088952   -0.995707   -0.051371
