17

O       0.219375    1.398016   -0.152268
C       0.120654    0.005821   -0.175508
C      -1.300542   -0.445669    0.102718
O      -2.168426    0.377924    0.307014
C      -1.621670   -1.929381    0.122326
O      -0.437877   -2.637322   -0.143349
C      -2.472637   -2.393794    1.340652
O      -3.564280   -2.792652    0.494917
C      -2.889773   -2.330325   -0.687185
H      -0.675819    1.717649    0.041926
H       0.428638   -0.411348   -1.147239
H       0.781708   -0.465036    0.569099
H      -0.628019   -3.580991   -0.133661
H      -2.028783   -3.235500    1.888257
H      -2.756936   -1.599104    2.037877
H      -3.416147   -1.498793   -1.166733
H      -2.708268   -3.132116   -1.414867
