18

O      -0.096474   -0.070241    0.007828
C      -0.083341    1.122547    0.037290
C      -1.165599    2.215429    0.191204
C      -0.049634    3.135665    0.733756
O      -0.039036    3.017732    2.146878
C       1.263948    3.111599    2.713884
C       2.138612    1.957738    2.226140
N       2.283227    1.946632    0.765534
C       1.035984    2.199898    0.092246
H      -1.561064    2.538784   -0.776692
H      -1.986964    2.000677    0.875908
H      -0.051111    4.188919    0.425979
H       1.728834    4.079704    2.459579
H       1.123016    3.074875    3.798345
H       3.134472    2.007175    2.677147
H       1.677661    1.012390    2.537440
H       2.974685    2.633079    0.483461
H       1.228738    2.511762   -0.941544
