20

C      -1.800492    0.184989    1.736539
N      -0.827999   -0.687303    1.096594
C      -0.081430   -0.172767   -0.042645
C       0.608319   -0.429149    1.255602
C       1.200812    0.666504    2.120160
C       1.216288    2.091520    1.602365
C       1.174437    0.426728    3.593310
N       2.438882    0.316098    2.851138
H      -1.549636    1.255741    1.714861
H      -2.764645    0.055171    1.234587
H      -1.922684   -0.114172    2.782187
H       0.044600   -0.851501   -0.882993
H      -0.235711    0.867287   -0.325896
H       1.168953   -1.361692    1.338457
H       0.209549    2.500280    1.473658
H       1.756516    2.728583    2.306946
H       1.729161    2.147190    0.636562
H       1.115973    1.268106    4.279177
H       0.698268   -0.482456    3.951940
H       2.667784   -0.664668    2.705516
