17

C       0.004835    1.574175   -0.006993
C       0.014989    0.045773    0.080974
C       0.769138   -0.636897   -1.114407
O       1.548007   -1.762493   -0.611868
C       1.624005   -1.564159    0.729538
C       2.280299   -2.085257    1.816181
N       1.793728   -1.350666    2.874907
N       0.889872   -0.405560    2.530509
C       0.796572   -0.549274    1.216773
H       1.025370    1.969238   -0.033268
H      -0.519109    1.914466   -0.906610
H      -0.500509    2.004563    0.861847
H      -1.022689   -0.312617    0.111870
H       0.100206   -1.022571   -1.886292
H       1.467200    0.075326   -1.572816
H       3.007435   -2.867730    1.949657
H       2.064179   -1.431803    3.839295
