16

C      -0.048491    1.398952    0.010313
O       0.011501   -0.005721    0.002248
C      -1.264892   -0.607129    0.010733
C      -1.098011   -2.091720    0.002027
C       0.066363   -2.812022   -0.009451
N      -0.329009   -4.133903   -0.012637
C      -1.690570   -4.148759   -0.004379
N      -2.188246   -2.933713    0.004927
H       0.978899    1.771335    0.002766
H      -0.575364    1.791425   -0.874210
H      -0.558825    1.781917    0.908597
H      -1.838090   -0.294315    0.900927
H      -1.853977   -0.285902   -0.865963
H       1.099753   -2.514212   -0.014998
H       0.278839   -4.935162   -0.020342
H      -2.258539   -5.067137   -0.005197
