16

C      -0.292307    1.633319   -0.158040
C       0.010367    0.144134   -0.114810
C       0.894356   -0.471157   -1.219732
C       1.811091   -0.892478   -0.054614
O       0.974351   -0.201597    0.911495
C      -1.258662   -0.663601    0.158705
O      -1.823498   -1.364539   -0.640597
C      -1.766876   -0.543240    1.543390
N      -2.201004   -0.427692    2.608674
H       0.639125    2.189104   -0.293986
H      -0.968361    1.864973   -0.987772
H      -0.756636    1.963261    0.776313
H       0.423786   -1.270532   -1.790910
H       1.323729    0.266217   -1.898616
H       1.855758   -1.968167    0.147258
H       2.825822   -0.483585   -0.061562
