25

C      -0.131950    1.417810   -0.060747
C      -0.232262   -0.055760    0.293503
O      -1.296924   -0.624575   -0.454296
C      -1.466244   -1.989771   -0.226359
C      -2.420338   -2.456927    0.858251
C      -3.099329   -1.470743    1.785274
C      -2.794716   -2.573892   -0.614321
C      -3.863044   -1.720238   -1.270312
C      -3.661587   -1.612517   -2.786882
H       0.691066    1.886525    0.487035
H       0.047106    1.543206   -1.132394
H      -1.059078    1.939494    0.193990
H       0.709507   -0.576559    0.053985
H      -0.410433   -0.188745    1.371268
H      -0.563323   -2.576465   -0.405921
H      -2.151014   -3.396742    1.334816
H      -3.158213   -0.475526    1.339238
H      -4.117460   -1.789900    2.034542
H      -2.544789   -1.379639    2.725753
H      -2.743939   -3.582447   -1.020537
H      -4.849676   -2.151622   -1.056638
H      -3.859346   -0.716777   -0.838103
H      -4.457202   -1.021616   -3.251998
H      -2.704589   -1.132427   -3.012306
H      -3.661590   -2.601319   -3.259601
