21

C      -0.141582    1.602994    0.028197
C      -0.015078    0.067586    0.019836
C       0.768192   -0.480235    1.172594
C       2.119869   -0.777922    1.285849
C       3.186501   -0.633910    0.243009
C       2.261787   -1.237353    2.612138
N       1.110227   -1.230782    3.276001
N       0.209809   -0.761927    2.385595
C      -1.180543   -0.666742    2.774883
H       0.845377    2.073953    0.002927
H      -0.709406    1.951061   -0.840425
H      -0.652600    1.956973    0.929081
H      -1.015808   -0.380450   -0.001419
H       0.475662   -0.244797   -0.908377
H       3.634208    0.367818    0.237836
H       3.998470   -1.347417    0.413658
H       2.797292   -0.816517   -0.764404
H       3.161695   -1.577370    3.105709
H      -1.557545    0.354249    2.659565
H      -1.808286   -1.342586    2.183938
H      -1.237319   -0.954215    3.824025
