23

C       1.014779   -0.706471   -0.977571
C       0.018349    0.007375   -0.050070
C       0.111380    1.528424   -0.240727
C      -1.419884   -0.521438   -0.257951
O      -1.749061   -0.216387   -1.626551
C      -1.558648   -2.046688    0.045770
C      -2.910480   -2.236376    0.777186
C      -3.279772   -0.831739    1.184055
C      -2.465927    0.083803    0.660450
H       2.031557   -0.342587   -0.798292
H       1.017682   -1.789292   -0.821520
H       0.763891   -0.518906   -2.025039
H       0.282398   -0.227261    0.989777
H      -0.487449    2.073298    0.495072
H       1.147549    1.864556   -0.131745
H      -0.237148    1.809407   -1.238097
H      -2.699080   -0.335513   -1.725864
H      -1.482656   -2.624120   -0.877946
H      -0.742514   -2.366024    0.700564
H      -3.685218   -2.674352    0.133094
H      -2.824099   -2.909226    1.638085
H      -4.133178   -0.615154    1.818791
H      -2.563510    1.155085    0.790400
