18

C       0.127107    1.469719   -0.028874
O       0.077776    0.064819    0.059824
C       0.462732   -0.572324   -1.140172
C       0.465495   -2.045415   -0.901001
O       0.481989   -2.923941   -2.023239
C      -0.543946   -3.096177   -1.040475
C       0.057874   -3.850488    0.199460
N       1.480523   -4.151306   -0.092982
C       1.080310   -2.793019    0.343791
H       1.141691    1.828384   -0.263772
H      -0.559067    1.854277   -0.799637
H      -0.173710    1.868469    0.942712
H      -0.226582   -0.336019   -1.966639
H       1.470268   -0.239907   -1.447270
H      -1.576318   -3.073083   -1.367989
H      -0.506961   -4.382417    0.952772
H       1.848875   -4.621420    0.735076
H       1.472153   -2.317517    1.231910
