25

C       0.044864    1.497787    0.096478
C      -0.012827   -0.038143    0.043724
C       0.700642   -0.603603    1.283406
C      -1.462693   -0.576906   -0.098469
C      -2.248103    0.146249   -1.205229
C      -1.478047   -2.103589   -0.344214
C      -2.836210   -2.739220   -0.161441
C      -3.001849   -4.061565    0.455124
O      -3.294078   -2.872620    1.190169
H       1.072880    1.834886    0.264785
H      -0.304138    1.962908   -0.828417
H      -0.566794    1.885993    0.920285
H       0.546008   -0.361345   -0.848304
H       0.163630   -0.327186    2.198668
H       0.789452   -1.692617    1.267755
H       1.714630   -0.197781    1.360344
H      -1.974175   -0.397867    0.858369
H      -1.722068    0.080130   -2.165874
H      -3.240877   -0.291591   -1.342644
H      -2.396393    1.204077   -0.977471
H      -1.123023   -2.311083   -1.364020
H      -0.788704   -2.605163    0.340046
H      -3.618834   -2.419322   -0.850662
H      -3.862537   -4.678748    0.199678
H      -2.121559   -4.611609    0.786782
