19

O      -0.096417    1.493913   -0.125511
C       0.026309    0.091555    0.056175
C      -1.375382   -0.503021   -0.005946
C      -1.405988   -2.041432    0.045950
C      -0.887743   -2.659905    1.337495
C      -1.772426   -3.481461    1.907886
C      -3.038968   -3.500454    1.116079
O      -3.680723   -2.203030    1.042405
C      -2.827465   -2.604638   -0.031517
H       0.777756    1.885923   -0.043825
H       0.657879   -0.357580   -0.729378
H       0.497335   -0.140697    1.024254
H      -1.979349   -0.104055    0.814337
H      -1.840593   -0.165452   -0.939687
H      -0.826523   -2.429468   -0.805755
H       0.088485   -2.420151    1.743808
H      -1.629611   -4.038188    2.825745
H      -3.716980   -4.348236    1.111271
H      -3.317455   -2.730890   -0.993737
