19

O      -0.015719    1.409072   -0.126782
C       0.026000    0.017392    0.096725
C       0.499864   -0.424771    1.496385
C      -0.003026   -1.878467    1.591430
C      -1.362128   -1.875390    0.860633
O      -1.667290   -3.067878    0.183439
C      -2.514712   -1.182053    1.625463
O      -2.324283    0.036995    0.878428
C      -1.370259   -0.590841   -0.007919
H       0.880118    1.751523   -0.051226
H       0.646917   -0.487778   -0.665118
H       1.582088   -0.338760    1.631685
H       0.011784    0.212739    2.240251
H       0.669890   -2.549002    1.044406
H      -0.075915   -2.244303    2.621076
H      -1.539202   -3.804221    0.791021
H      -3.491832   -1.640392    1.426781
H      -2.386457   -1.029874    2.704885
H      -1.753867   -0.676127   -1.028759
