18

C      -0.289629    1.516542    0.064277
C       0.063996    0.041645    0.018568
C       1.162646   -0.465014   -0.973010
O       1.929360    0.478468   -1.685940
C       1.897265   -1.025369    0.242813
C       2.137087    0.067223    1.218988
N       0.797551   -0.530826    1.210111
C       2.502967   -2.311997    0.312175
C       3.016929   -3.399785    0.333121
H       0.592352    2.160486    0.043034
H      -0.911348    1.782110   -0.797764
H      -0.862269    1.737542    0.970647
H      -0.847036   -0.553141   -0.093826
H       0.793207   -1.260057   -1.629523
H       1.467893    0.693052   -2.502750
H       2.704787   -0.198931    2.104404
H       2.299933    1.076080    0.853453
H       3.470149   -4.359465    0.362960
