18

O      -0.147044    1.323953   -0.023888
N      -0.010859   -0.084211   -0.017775
C      -1.134562   -0.659629    0.017942
C      -2.584841   -0.200040    0.039646
C      -3.079129   -0.913619   -1.270179
C      -2.267864   -2.251374   -1.281480
C      -1.400917   -2.153640    0.024208
C      -2.375606   -2.202307    1.194466
C      -3.067103   -1.055507    1.204758
H       0.772115    1.610511   -0.043686
H      -2.772842    0.868640    0.090200
H      -4.159421   -1.073292   -1.250380
H      -2.843039   -0.302190   -2.145406
H      -2.908266   -3.136140   -1.271204
H      -1.619783   -2.311299   -2.160234
H      -0.537641   -2.814549    0.063408
H      -2.516215   -3.063220    1.835561
H      -3.887733   -0.786090    1.857522
