16

O      -0.129760    1.320093   -0.039795
N       0.004602   -0.082729   -0.017770
C      -1.128294   -0.649742    0.000159
C      -2.536527   -0.085518    0.036664
C      -3.328276   -1.435600    0.024543
O      -2.486362   -2.255088    0.852413
C      -1.314437   -2.167390    0.028415
C      -1.869924   -2.519222   -1.354302
C      -3.124121   -2.067018   -1.351805
H       0.788253    1.611663   -0.028965
H      -2.703812    0.463715    0.967743
H      -2.755202    0.579869   -0.801170
H      -4.340521   -1.397898    0.423256
H      -0.488279   -2.750436    0.427171
H      -1.295369   -2.943709   -2.165184
H      -3.836103   -2.038822   -2.165041
