25

C       0.022336    1.600189   -0.035889
C       0.023500    0.064768    0.020127
C       0.722381   -0.481943   -1.246996
C       1.063652   -1.978413   -1.284891
C      -0.119066   -2.939045   -1.137927
O      -0.887946   -2.766870    0.039461
C      -0.189637   -2.914866    1.268283
C      -0.112101   -1.592368    2.033551
C       0.645484   -0.439652    1.350683
H       1.041934    1.997851    0.041721
H      -0.403794    1.965859   -0.976821
H      -0.563844    2.027353    0.784728
H      -1.018139   -0.270106   -0.002152
H       0.097635   -0.234690   -2.116011
H       1.660656    0.073539   -1.387128
H       1.547529   -2.207124   -2.243542
H       1.815825   -2.206369   -0.520747
H      -0.827403   -2.790771   -1.961275
H       0.249135   -3.976855   -1.204963
H      -0.738786   -3.648490    1.874428
H       0.814962   -3.328258    1.103140
H      -1.139441   -1.264006    2.238156
H       0.346015   -1.799359    3.009988
H       1.696952   -0.718629    1.198158
H       0.669472    0.393329    2.063278
