18

C       0.044607    1.532002   -0.039262
O       1.427948    1.590472    0.353692
C       1.512880    0.156770    0.436453
C       0.035405   -0.019362   -0.028474
C      -0.964788   -0.732782    0.913369
C      -1.349523   -2.062293    0.213364
C      -0.899530   -1.838542   -1.209999
C      -0.160717   -0.737584   -1.335298
H      -0.615358    2.000503    0.703863
H      -0.128236    2.003882   -1.015423
H       2.275577   -0.250679   -0.239363
H       1.720988   -0.187694    1.458785
H      -0.557597   -0.881192    1.917270
H      -1.856283   -0.105389    1.021343
H      -0.831199   -2.925889    0.652347
H      -2.420639   -2.280728    0.291175
H      -1.136010   -2.527011   -2.014108
H       0.301593   -0.388035   -2.252924
