23

C      -0.364649    1.796667    0.326233
C      -0.054603    0.299054    0.424129
C      -1.151818   -0.594862   -0.149162
O      -2.381506   -0.428912    0.557751
C      -1.361095   -0.591290   -1.696390
C      -1.472183   -2.137025   -1.668199
C      -2.898381   -2.669359   -1.730648
O      -0.659415   -2.716784   -2.674594
C      -0.866672   -2.115915   -0.227336
H       0.461004    2.395837    0.720808
H      -0.530333    2.105580   -0.712140
H      -1.256819    2.058952    0.905653
H       0.881781    0.082259   -0.103412
H       0.099502    0.020982    1.474219
H      -2.720430    0.450222    0.358554
H      -2.220102   -0.033547   -2.080452
H      -0.459948   -0.290013   -2.236306
H      -3.327476   -2.491899   -2.722334
H      -2.915999   -3.749825   -1.535562
H      -3.522443   -2.183093   -0.977230
H      -0.786258   -3.671454   -2.646122
H       0.203916   -2.331412   -0.257793
H      -1.352371   -2.721087    0.541638
