22

C       0.178924    1.551337   -0.065909
O      -0.035048    0.158964   -0.104744
C       0.614351   -0.517051   -1.177429
C       2.106486   -0.714971   -0.895328
C      -0.099474   -1.864603   -1.376412
C      -1.537291   -1.744607   -1.826693
C      -2.616805   -1.499250   -0.808994
N      -1.722164   -1.882395   -3.084988
O      -3.075700   -1.764402   -3.449289
H       1.227166    1.813560    0.137398
H      -0.120397    2.034205   -1.008985
H      -0.438052    1.948791    0.743946
H       0.492151    0.074556   -2.099399
H       2.617071    0.240771   -0.748010
H       2.245563   -1.319785    0.006541
H       2.591806   -1.223690   -1.733931
H       0.453260   -2.430853   -2.130525
H      -0.052251   -2.420117   -0.431431
H      -2.235426   -0.854832   -0.015803
H      -3.498730   -1.054124   -1.269734
H      -2.921085   -2.450357   -0.353026
H      -3.031916   -1.870468   -4.404942
