22

C       0.010870    1.582184   -0.027438
C      -0.003967    0.052807    0.045637
C      -1.418620   -0.537278    0.002369
C      -1.462743   -2.066621    0.053646
C      -0.917823   -2.700340    1.366122
C      -1.789644   -3.918648    1.556559
C      -2.854791   -3.900397    0.757450
C      -2.887994   -2.665713   -0.110380
H       1.032014    1.975335    0.002074
H      -0.456917    1.939107   -0.951927
H      -0.539740    2.023646    0.810887
H       0.583590   -0.360040   -0.785515
H       0.501392   -0.272543    0.963814
H      -2.008010   -0.133028    0.838354
H      -1.920191   -0.193912   -0.913309
H      -0.850979   -2.455020   -0.771282
H       0.149244   -2.942238    1.303747
H      -1.024413   -2.012101    2.219100
H      -1.571508   -4.684637    2.293074
H      -3.639530   -4.649160    0.741706
H      -3.660186   -1.965400    0.243860
H      -3.129888   -2.878755   -1.158319
