15

O      -0.099601    1.469028    0.094099
C      -0.070357    0.087493    0.017583
C       0.908283   -0.484300    1.019110
O       1.583167    0.238226    1.711787
C      -1.416587   -0.665111    0.017209
C      -2.211460   -0.246501   -1.163498
C      -1.122641   -1.295986   -1.373350
C       0.197012   -0.606044   -1.400543
O       1.167547   -0.651883   -2.095672
H       0.571227    1.713416    0.753819
H       0.973554   -1.587690    1.078460
H      -1.851164   -1.166331    0.872390
H      -3.218050   -0.645767   -1.225184
H      -2.094122    0.750489   -1.573177
H      -1.348218   -2.281915   -1.757506
