15

N      -0.028131    1.516169    0.088252
C      -0.007425    0.072571   -0.003012
C       0.652082   -0.419666   -1.332802
N       0.891998   -1.754802   -1.423484
O       0.855368    0.361242   -2.239796
C       0.715916   -0.514136    1.214103
N       0.286369   -1.766966    1.600284
O       1.645892    0.049358    1.748600
H       0.805549    1.796946    0.600676
H       0.079636    1.875411   -0.858866
H      -1.034614   -0.325638   -0.028527
H       0.897180   -2.333711   -0.598791
H       1.365242   -2.085252   -2.249556
H      -0.670671   -2.028097    1.418044
H       0.678645   -2.108275    2.466614
