23

C       0.285129    1.523691   -0.398606
C       0.051978    0.064512   -0.073492
C       1.194867   -0.918487   -0.068313
C       0.515114   -0.557837    1.233748
C       1.171807    0.227214    2.314754
C       2.575245    0.770083    2.286969
C       2.205981   -0.203539    3.372072
C       1.424684    0.513527    4.475798
C       0.377487    0.969925    3.408500
H       1.241790    1.875666   -0.003919
H       0.291849    1.685518   -1.482526
H      -0.502030    2.157294    0.025618
H      -0.893186   -0.322779   -0.446437
H       1.039122   -1.913712   -0.470669
H       2.188266   -0.521348   -0.249807
H      -0.158089   -1.321416    1.620422
H       3.221697    0.368949    1.513682
H       2.768753    1.814657    2.527532
H       2.717392   -1.154339    3.469547
H       0.992908   -0.166323    5.213895
H       1.965424    1.303735    5.008224
H       0.251902    2.048157    3.261173
H      -0.607505    0.528978    3.582325
