22

C       0.104271    1.046926   -0.568910
O      -0.201315    0.160169    0.487543
C      -1.374394   -0.560178    0.270081
C      -1.327743   -1.810982   -0.574832
C      -1.487478   -1.896986    0.934168
C      -0.367917   -2.423469    1.803850
N      -0.499468   -3.866343    1.996031
C       0.205052   -4.719203    1.045738
C       0.697724   -4.566993    2.442910
H       1.028565    1.563660   -0.299824
H       0.251365    0.512910   -1.518829
H      -0.691595    1.793588   -0.712986
H      -2.269772    0.061643    0.211500
H      -2.169991   -2.054589   -1.213078
H      -0.357176   -2.079959   -0.978940
H      -2.476052   -2.162413    1.297083
H       0.606437   -2.141910    1.371886
H      -0.423098   -1.955636    2.794650
H      -0.317166   -5.619947    0.735900
H       0.789346   -4.239629    0.261963
H       1.607481   -3.984938    2.585620
H       0.541761   -5.353290    3.176291
