15

C      -0.123927    1.427690    0.016517
N      -0.050531   -0.022847    0.003127
C       0.612029   -0.599370   -0.933406
C       1.338384    0.037418   -2.042570
C       1.990667   -0.692240   -2.953903
O       2.041736   -2.057531   -2.940092
C       1.385304   -2.667759   -1.935489
F       1.521045   -3.969648   -2.050060
C       0.699095   -2.056656   -0.966507
H       0.864549    1.902857    0.111022
H      -0.600526    1.838076   -0.886943
H      -0.722269    1.745740    0.874298
H       1.358338    1.114141   -2.141914
H       2.545948   -0.300811   -3.795578
H       0.204743   -2.639226   -0.201794
