21

C      -0.103469    1.565728    0.169096
C       0.025566    0.048303    0.059476
C      -1.334525   -0.600954   -0.186887
O      -1.826149   -0.140520   -1.440177
C       1.094976   -0.528589   -0.942596
C       1.731601   -1.325719    0.201454
C       2.219272   -0.364501    1.264135
C       0.758952   -0.706202    1.190848
O       0.098596   -1.338851    2.236544
H       0.869579    2.046631    0.305783
H      -0.563343    1.974744   -0.734617
H      -0.738132    1.843215    1.019884
H      -1.225703   -1.695893   -0.179261
H      -2.021197   -0.336358    0.631748
H      -2.686381   -0.542618   -1.589207
H       0.639856   -1.134006   -1.727986
H       1.748949    0.215149   -1.409237
H       2.100464   -2.342277    0.147292
H       2.731359   -0.836733    2.097086
H       2.604270    0.616053    0.993040
H       0.096148   -0.745912    2.995744
