16

O      -0.051088    1.471522   -0.154974
C      -0.026980    0.061377   -0.093217
C      -1.372830   -0.637928   -0.123890
C      -1.765575   -0.839243   -1.590380
C      -0.792600   -1.782529   -0.929587
C       0.322343   -0.755805   -1.370489
C      -0.670830   -0.216987   -2.443333
O      -0.599376   -0.903989   -3.678514
H       0.846945    1.796462   -0.035793
H       0.561119   -0.290303    0.766066
H      -2.112949   -0.685420    0.664347
H      -2.793231   -1.025406   -1.873445
H      -0.802569   -2.847587   -0.759958
H       1.352227   -0.985544   -1.641524
H      -0.686034    0.870785   -2.588532
H       0.175377   -0.579870   -4.148522
