15

C       0.140322    1.555569    0.137886
C       0.050078    0.066114    0.049082
C      -0.035744   -0.695862   -1.078486
N      -0.083572   -0.321741   -2.424232
O      -0.069296   -2.021990   -0.766454
C       0.001086   -2.121247    0.601450
C       0.061750   -0.874808    1.138360
O       0.142621   -0.588195    2.466716
H       0.977396    1.875568    0.772313
H       0.300135    1.977800   -0.857398
H      -0.771060    2.009165    0.548972
H      -1.033707   -0.223400   -2.769925
H       0.391237   -1.000915   -3.009368
H       0.018399   -3.112433    1.017945
H       0.171553    0.367619    2.570655
