17

C       0.262275    1.576276    0.058454
C      -0.258873    0.162131   -0.220399
C       0.513853   -0.512759   -1.328226
N       1.795083   -1.119126   -0.970028
C       0.689805   -2.003805   -1.417261
C       0.136022   -2.903469   -0.450787
C      -0.357446   -3.678126    0.335921
C      -0.911434   -4.549204    1.227703
N      -1.385779   -5.291639    1.985593
H       1.316222    1.547013    0.351008
H       0.174506    2.216565   -0.826426
H      -0.302016    2.048214    0.867587
H      -0.185782   -0.449233    0.684241
H      -1.319335    0.195993   -0.499045
H       0.454665   -0.016539   -2.297495
H       2.472775   -1.029061   -1.722735
H       0.751043   -2.419928   -2.420727
