15

O       0.218575    1.302971   -0.218263
C       0.008151   -0.030685    0.016659
C      -0.790393   -0.793037   -1.112056
C      -0.848222   -2.376657   -1.007652
C      -0.838075   -2.051307    0.476165
C       0.332502   -2.065653    1.169536
C       0.898375   -0.695343    1.039909
O       1.897730   -0.172441    1.485919
C      -1.371331   -0.646980    0.256795
H       0.978873    1.534509    0.339649
H      -1.043128   -0.233154   -2.008909
H      -1.804240   -2.687798   -1.441613
H      -0.027026   -2.986067   -1.392740
H       1.003479   -2.916374    1.229484
H      -2.236722   -0.133951    0.649508
