16

O      -0.164248    1.465229   -0.072862
C      -0.075953    0.061578   -0.265430
C      -1.360069   -0.549079    0.287929
C      -1.397110   -2.058798    0.143973
C      -2.657216   -2.739363   -0.221927
O      -1.641260   -2.536851   -1.196877
C      -0.401895   -2.800614    0.886415
C       0.429389   -3.390386    1.523756
H       0.632008    1.867092   -0.431782
H       0.018174   -0.196254   -1.330917
H       0.792926   -0.363493    0.259032
H      -1.457803   -0.279094    1.345263
H      -2.214632   -0.121873   -0.245375
H      -2.813484   -3.771302    0.086477
H      -3.558647   -2.140165   -0.345384
H       1.162637   -3.920843    2.079810
