18

C      -0.224403    1.544150    0.029453
C      -0.062290    0.058875   -0.032036
C      -0.074582   -0.733282   -1.106478
C       0.127914   -2.193725   -0.796095
C       0.423848   -2.206644    0.724925
N       1.848383   -2.442243    1.030102
C       2.255560   -1.406431    1.636622
O       1.410875   -0.378227    1.883690
C       0.162536   -0.753533    1.219781
H       0.642444    2.005982    0.516098
H      -0.335088    1.979937   -0.966853
H      -1.103537    1.823654    0.624345
H      -0.226271   -0.377205   -2.120948
H      -0.764550   -2.784726   -1.038957
H       0.959315   -2.634935   -1.355806
H      -0.174087   -2.962107    1.242107
H       3.264087   -1.254655    2.006647
H      -0.627216   -0.634758    1.967600
