18

C       0.307293    1.610534   -0.301173
C       1.575935    1.516926    0.603303
C       1.342307   -0.005188    0.780049
C       0.025476    0.098355   -0.083229
C       0.633355   -0.884311   -1.117944
O       1.021461   -0.340594   -2.400144
C       2.353757   -0.087865   -2.281065
N       2.971424   -0.368475   -1.208158
C       1.960330   -0.942252   -0.310245
H      -0.477693    2.254566    0.100741
H       0.480942    1.896236   -1.340599
H       2.523658    1.793588    0.139215
H       1.473584    2.067718    1.541153
H       1.356815   -0.403734    1.794941
H      -0.961525   -0.171496    0.294358
H       0.065084   -1.798221   -1.297830
H       2.800852    0.351285   -3.166541
H       2.295760   -1.911099    0.067341
