18

O      -0.621246    0.643380    0.552367
C       0.101720    1.084037   -0.305659
C       1.280736    1.993961   -0.076202
C       1.247512    3.342847   -0.813188
C       0.218300    4.237078   -0.241470
N       1.509900    4.116313    0.464727
C       1.434914    2.824498    1.203588
C       0.810640    2.682825    2.554316
C       2.312379    2.553997    2.377881
H      -0.070925    0.838452   -1.380396
H       2.193426    1.435257   -0.318693
H       1.781665    3.565893   -1.730194
H       0.082819    5.204331   -0.714940
H      -0.672338    3.821376    0.223829
H       0.438345    3.589044    3.020923
H       0.228297    1.790927    2.746617
H       2.762653    1.570705    2.470026
H       2.932658    3.375442    2.719442
