20

C       0.102149    1.496539    0.004252
C      -0.072050   -0.002213    0.004148
C      -0.907173   -0.708520    1.000706
N       0.568058   -0.810589    1.089954
C       1.240558   -1.929730    0.350007
C       0.250069   -2.886766   -0.311833
O      -0.386957   -2.055303   -1.305889
C       0.295634   -0.791572   -1.268917
C       1.740319   -1.190542   -0.911383
H       1.050390    1.792809   -0.458481
H      -0.708435    1.984183   -0.549227
H       0.097768    1.878116    1.028720
H      -1.342647   -0.139434    1.818359
H      -1.505675   -1.548649    0.670699
H       1.988519   -2.408999    0.981955
H       0.760249   -3.731199   -0.794732
H      -0.501491   -3.289259    0.375375
H       0.115459   -0.274218   -2.211300
H       2.384777   -0.343421   -0.670928
H       2.216607   -1.833595   -1.655763
