22

C      -0.000894    1.433024    0.834669
C      -0.059629   -0.021238    0.397569
O       0.776629   -0.778842    1.251296
C       0.856022   -2.162126    0.924621
C       2.050887   -2.772595    1.683738
C       1.441413   -3.382763    2.936131
C       0.492505   -2.551271    3.719924
N      -0.016426   -3.550046    2.761804
C      -0.351674   -2.987301    1.442150
H       1.026229    1.805793    0.789443
H      -0.625777    2.051893    0.183863
H      -0.358956    1.540923    1.862576
H      -1.097817   -0.388060    0.433526
H       0.281397   -0.127174   -0.646317
H       0.970792   -2.261634   -0.164610
H       2.519526   -3.556958    1.079981
H       2.803808   -2.006750    1.885906
H       1.967070   -4.204044    3.415286
H       0.296719   -2.795250    4.760442
H       0.412914   -1.499571    3.463701
H      -1.265601   -2.388403    1.500208
H      -0.546556   -3.827330    0.765134
