21

O      -0.196062    1.494584   -0.374131
C       0.052333    0.148933    0.017099
C      -1.279270   -0.558444    0.052851
C      -1.795684   -1.321706   -1.143297
C      -1.457257   -2.061892    0.126033
C      -0.350014   -3.078468    0.186154
O       0.752993   -2.850438   -0.658594
C      -0.077794   -3.798391    1.485254
C      -0.723213   -4.527692    0.322988
H       0.643647    1.963558   -0.378369
H       0.726699   -0.346950   -0.694302
H       0.525036    0.116018    1.013952
H      -2.016758    0.012045    0.611933
H      -2.835059   -1.215660   -1.433376
H      -1.103501   -1.448284   -1.969015
H      -2.308508   -2.369075    0.728801
H       1.377432   -2.291576   -0.184983
H       0.955005   -4.042692    1.710385
H      -0.685230   -3.554318    2.350290
H      -1.773851   -4.787374    0.390755
H      -0.109188   -5.234360   -0.222469
