18

C       0.005271    1.605579   -0.097466
C       1.533333    1.798260   -0.022994
O       1.937839    0.964952   -1.161250
C       1.564674   -0.124738   -0.296947
C       2.064242    0.663581    0.935732
C       1.278173    0.151271    2.129998
N       0.028453    0.848150    2.491253
C      -0.021664   -0.307835    1.561643
C       0.026858    0.059210    0.066332
H      -0.563560    2.113320    0.676754
H      -0.333473    1.907024   -1.090758
H       1.952973    2.803620   -0.039133
H       1.929302   -1.104806   -0.606981
H       3.146339    0.702133    1.050480
H       1.808630   -0.398783    2.900536
H      -0.260080    0.535670    3.416088
H      -0.517136   -1.215327    1.889286
H      -0.683691   -0.489032   -0.550603
