22

C       0.467873    0.238186    0.756274
C      -0.445983    0.407106   -0.438180
O      -1.297779    1.263478   -0.493330
C      -0.231138   -0.533834   -1.631036
N       0.307570   -1.823764   -1.235224
C      -0.618918   -2.949792   -1.110548
C       0.405012   -2.929715   -2.198669
C      -0.050734   -2.749196   -3.635174
C       1.663544   -3.761903   -2.045974
H       0.280213   -0.728732    1.233536
H       1.515837    0.219213    0.440159
H       0.294027    1.048113    1.465661
H      -1.181101   -0.568662   -2.182924
H       0.502350   -0.036057   -2.282439
H      -0.489614   -3.581738   -0.234815
H      -1.656927   -2.783887   -1.397949
H      -0.986274   -2.191784   -3.713904
H       0.710631   -2.224113   -4.223905
H      -0.207253   -3.727058   -4.102486
H       1.507958   -4.778062   -2.425494
H       2.493878   -3.318431   -2.607620
H       1.960109   -3.821894   -0.996290
