21

C      -0.047873    1.537238   -0.058571
C      -0.022051    0.019959    0.007041
C      -1.253072   -0.741646    0.538502
O      -0.424646   -1.562860    1.389170
C       0.699508   -0.671981    1.202932
C       2.020381   -1.381816    0.959425
C       2.106734   -1.950136   -0.461162
C       1.675843   -0.875647   -1.455745
O       0.312785   -0.525854   -1.265294
H       0.944379    1.933368   -0.300046
H      -0.738802    1.866718   -0.840506
H      -0.364321    1.972537    0.894203
H      -1.952652   -0.126857    1.121190
H      -1.794387   -1.325767   -0.210926
H       0.783745    0.009791    2.062485
H       2.830942   -0.656660    1.112503
H       2.143507   -2.161691    1.719242
H       3.126030   -2.285416   -0.681157
H       1.439810   -2.812014   -0.568529
H       2.329364    0.009562   -1.367350
H       1.741828   -1.230983   -2.487994
