17

C      -0.011709    1.533103   -0.026830
C       0.127289    0.009776   -0.064331
C       0.634272   -0.551411    1.267621
N       0.740052   -2.000891    1.260986
C       1.837245   -2.784680    1.270646
N       1.499989   -4.061415    1.228928
C       0.141816   -3.999715    1.191681
N      -0.369184   -2.778208    1.208621
H       0.948776    2.019595    0.177028
H      -0.380002    1.914616   -0.983064
H      -0.715842    1.849246    0.750513
H      -0.836528   -0.457942   -0.288235
H       0.817505   -0.290191   -0.861664
H       1.628104   -0.157924    1.503812
H      -0.039328   -0.266173    2.082172
H       2.839996   -2.385906    1.313072
H      -0.488581   -4.875733    1.155158
