16

C       0.459689    0.559212   -1.038924
C      -0.131835    0.334988    0.336209
O       0.392755    0.725232    1.357461
C      -1.421454   -0.401427    0.406979
C      -2.325183   -0.620631    1.625800
C      -2.712641   -2.023302    1.040624
C      -1.793257   -1.734656   -0.152808
O      -2.231538   -0.535285   -0.773004
H       1.463616    0.972491   -0.936615
H       0.488183   -0.370052   -1.616255
H      -0.172895    1.254125   -1.601325
H      -1.753222   -0.687049    2.551541
H      -3.128564    0.109915    1.736708
H      -2.359854   -2.849566    1.661117
H      -3.761099   -2.182161    0.779239
H      -1.210778   -2.421854   -0.757134
