25

C       0.020130    1.561345    0.255575
C      -0.053213    0.050979    0.007220
C       0.676713   -0.438738   -1.261215
C       0.839497   -1.969618   -1.208090
C       1.740930   -2.611512   -2.272109
C       1.221712   -2.532408   -3.719828
C       1.279560   -1.155373   -4.336291
C       0.734110   -0.053112   -3.823023
C      -0.058553    0.030836   -2.539843
H       1.060719    1.897605    0.326935
H      -0.459386    2.139414   -0.540410
H      -0.478440    1.826380    1.193411
H       0.376921   -0.464191    0.875405
H      -1.104741   -0.265556   -0.038747
H       1.680885    0.010057   -1.265438
H       1.241076   -2.236308   -0.222083
H      -0.158406   -2.431147   -1.258889
H       2.740720   -2.161211   -2.226529
H       1.866386   -3.669940   -2.011352
H       1.802457   -3.224291   -4.338796
H       0.187289   -2.908488   -3.743015
H       1.815480   -1.070967   -5.279241
H       0.853036    0.878698   -4.371860
H      -0.981898   -0.562229   -2.633594
H      -0.385465    1.065804   -2.405317
