18

C       0.075623   -1.092645    0.128714
C       0.024221    0.106175    0.044158
C      -0.094333    1.532110   -0.054189
C       0.371809    2.267430   -1.269795
N       1.148708    2.390240   -0.031647
C       0.680311    3.438622    0.936435
C      -0.807409    3.760926    0.627830
C      -0.975993    2.262555    0.984865
C       0.127432    2.525890    2.072567
H       0.136471   -2.149988    0.203546
H       0.881793    1.683053   -2.030144
H      -0.194865    3.104174   -1.661204
H       1.434122    4.207841    1.099228
H      -1.236210    4.400287    1.401026
H      -1.112220    4.134860   -0.349505
H      -1.940158    1.812296    1.213937
H       0.752827    1.683029    2.371910
H      -0.241318    3.076431    2.940179
