16

O      -0.191968    1.320221   -0.129759
C      -0.005237   -0.089301    0.009563
C      -1.410532   -0.707942   -0.108447
C      -1.626001   -0.671428   -1.622732
O      -0.343148   -0.912182   -2.204857
C       0.677911   -0.686330   -1.247318
C       0.708222   -0.406566    1.245653
C       1.325254   -0.641148    2.250443
H       0.672407    1.740380   -0.063282
H      -1.392238   -1.735096    0.264073
H      -2.142711   -0.130620    0.457644
H      -2.316618   -1.443291   -1.976611
H      -2.003527    0.309590   -1.939093
H       1.421191    0.014467   -1.647935
H       1.185297   -1.629451   -1.003560
H       1.859493   -0.851452    3.144160
