19

C      -0.018685    1.588342    0.068134
C       0.044267    0.058127    0.078892
C       0.755456   -0.486995    1.320925
C      -1.371369   -0.531930   -0.023913
O      -2.108637   -0.119906    1.114780
O       0.653446   -0.448384   -1.136289
C       1.930408   -0.139963   -1.415364
N       2.463649   -0.580652   -2.474019
H       0.967578    2.041321    0.202004
H      -0.437494    1.941923   -0.878599
H      -0.663823    1.927984    0.881470
H       0.155325   -0.265139    2.206189
H       0.872165   -1.571903    1.242985
H       1.744345   -0.040547    1.457392
H      -1.828433   -0.176563   -0.958294
H      -1.287655   -1.626317   -0.083570
H      -2.993677   -0.488445    1.050575
H       2.420663    0.494920   -0.669115
H       3.426655   -0.255748   -2.532658
