15

N      -0.036942   -1.124571    0.062384
C      -0.016204    0.029620    0.042735
C       0.008440    1.477204    0.019412
O      -0.852190    2.048817    0.969992
C      -0.660734    3.468065    0.762648
C       0.358958    3.456065   -0.361844
C       1.351134    2.274868   -0.087863
N       1.425156    1.897665   -1.541747
C      -0.013579    2.278168   -1.325420
H      -1.615550    3.929702    0.488282
H      -0.293370    3.926507    1.687273
H       0.734844    4.391980   -0.773856
H       2.206462    2.232575    0.585882
H       1.896351    2.643491   -2.059366
H      -0.767610    2.239766   -2.111086
