14

C       0.013094    1.517667    0.002568
C       0.003579    0.023372   -0.022252
C      -0.134945   -0.813424   -1.117259
N      -0.079666   -2.083252   -0.623747
C       0.088247   -1.987820    0.735957
C       0.184940   -3.189854    1.563238
O       0.332343   -3.212661    2.760563
N       0.140196   -0.719846    1.112949
H       0.953178    1.894169    0.418204
H      -0.108652    1.930641   -1.002203
H      -0.795094    1.901718    0.633122
H      -0.263518   -0.610591   -2.168114
H      -0.149123   -2.934868   -1.157433
H       0.107680   -4.133110    0.969343
