19

C      -0.273661    1.500393   -0.075633
C       0.042371    0.024126    0.024486
O       1.137648   -0.428801   -0.833162
C       1.699854   -1.150209    0.252284
C       2.191842   -0.223511    1.342445
C       2.780801    1.063803    1.110465
C       3.330182    2.122563    0.951531
C       0.707696   -0.612395    1.254333
C      -0.031577   -1.234762    2.402051
H       0.584798    2.115036    0.194747
H      -0.575153    1.746260   -1.099071
H      -1.110848    1.743641    0.588105
H      -0.848080   -0.569055   -0.230242
H       2.108471   -2.136625    0.059846
H       2.666857   -0.778414    2.151140
H       3.803722    3.059906    0.795727
H      -0.431352   -0.470270    3.078625
H      -0.872343   -1.840918    2.046146
H       0.622499   -1.884686    2.991709
