22

C       0.094621    1.531273    0.089798
C      -0.009344    0.008217   -0.005799
C      -1.449519   -0.466186   -0.162861
O       0.703959   -0.481616   -1.147463
C       2.098689   -0.654464   -0.988174
C       2.428895   -2.060016   -0.481593
C       2.726822   -0.403639   -2.373102
C       2.545669    0.974253   -2.822634
N       2.415655    2.070697   -3.163005
H       1.132879    1.862386    0.184190
H      -0.324365    1.994588   -0.808211
H      -0.453562    1.898111    0.963687
H       0.415776   -0.442919    0.904672
H      -1.880245   -0.061618   -1.084128
H      -1.492435   -1.557289   -0.215359
H      -2.060461   -0.130761    0.680319
H       2.501902    0.090843   -0.288015
H       3.507845   -2.192309   -0.350696
H       1.949292   -2.238705    0.484743
H       2.064002   -2.813631   -1.186432
H       3.797482   -0.632589   -2.351333
H       2.258375   -1.079221   -3.097323
