18

C       0.661683    1.364961   -0.244085
N       0.238687   -0.022381   -0.107152
C       0.158920   -0.513056    1.052168
C      -0.282709   -1.939848    1.275503
C       0.577744   -2.683007    2.294399
O       0.794581   -3.866093    2.230907
C       1.122450   -1.791262    3.405937
C       0.397145   -0.449507    3.437874
O       0.473469    0.212488    2.170751
H       1.636498    1.547381    0.226153
H       0.735056    1.610928   -1.305826
H      -0.053204    2.055242    0.222274
H      -1.305336   -1.936703    1.685332
H      -0.310864   -2.472704    0.326678
H       1.048518   -2.316099    4.362742
H       2.189537   -1.628202    3.207213
H      -0.654979   -0.579049    3.726569
H       0.855432    0.237138    4.152327
