20

C      -0.366434    1.488656   -0.187200
C      -0.002567    0.035249    0.036136
C       1.330714   -0.633562   -0.276595
C       2.648457    0.153502   -0.332807
C       2.954884    0.587189    1.103890
N       2.029505    1.599158    1.653088
C       1.828352    0.168971    1.976467
C       0.811377   -0.598220    1.145458
O       0.344330   -1.780512    1.735684
H       0.471108    2.159084   -0.009854
H      -0.725420    1.621771   -1.214796
H      -1.177818    1.792140    0.484586
H      -0.818101   -0.638021   -0.229180
H       1.282590   -1.560377   -0.838293
H       3.445188   -0.508020   -0.688189
H       2.613744    1.011436   -1.012985
H       3.984833    0.594556    1.447248
H       2.470374    2.060458    2.445618
H       1.971987   -0.172804    2.995921
H      -0.437224   -1.562414    2.254903
