19

C      -0.007380    1.515722   -0.022826
C       0.006815    0.004166    0.035390
C      -1.215991   -0.680973   -0.584887
O      -1.772984   -1.729310    0.188190
C      -0.804450   -2.665283    0.614603
C       0.146971   -2.034247    1.635544
C       0.700306   -0.711907    1.142719
N       1.340986   -0.601879   -0.179408
H       0.926995    1.919629    0.374353
H      -0.110187    1.867110   -1.056496
H      -0.842917    1.923937    0.556676
H      -2.021704    0.048269   -0.709088
H      -0.954026   -1.054772   -1.591593
H      -1.351693   -3.499092    1.062870
H      -0.249190   -3.067416   -0.251858
H      -0.406174   -1.854917    2.565076
H       0.961709   -2.730140    1.873973
H       1.194187   -0.113332    1.906908
H       1.252131   -1.480199   -0.687531
