18

C      -0.001260    1.533151   -0.006843
C       1.435498    2.060782    0.057500
O       2.117014    1.654885    1.255834
C       1.901716    0.344511    1.519155
C       0.959555   -0.504306    0.992855
C      -0.034944   -0.009897   -0.016813
C       1.170521   -1.767796    1.631504
C       2.216442   -1.630196    2.508821
N       2.665284   -0.320807    2.432528
H      -0.548019    1.910884    0.864823
H      -0.485203    1.945049   -0.898841
H       2.009829    1.703819   -0.809773
H       1.461500    3.152769    0.066479
H      -1.049222   -0.358867    0.210792
H       0.193829   -0.381954   -1.025773
H       0.606508   -2.673340    1.463746
H       2.682985   -2.333129    3.178456
H       3.425514    0.084696    2.948981
