16

C      -0.001379    1.409188    0.021731
N       0.122339   -0.040987   -0.002824
C       0.638286   -0.632296    0.976154
O       1.136886   -0.084671    2.137280
C       1.580818   -1.265381    2.895638
O       2.081203   -2.105258    1.890618
C       0.842593   -2.142411    1.145765
C      -0.162912   -2.540492    2.231523
C       0.311314   -1.989473    3.348674
H       0.565192    1.828249   -0.817322
H      -1.051363    1.677445   -0.139719
H       0.345490    1.875977    0.950400
H       2.337306   -0.958902    3.612778
H       0.917541   -2.726035    0.234329
H      -1.097477   -3.052217    2.055657
H      -0.123520   -1.938740    4.335896
