21

C      -0.402329    1.049469    0.097374
O       0.507381    0.000751   -0.164138
C       0.952681   -0.624556    0.997974
C       0.165169   -1.695123    1.699786
C      -0.619587   -2.550553    0.690112
C       0.703266   -2.859148   -0.036305
C       1.125172   -4.202473   -0.552114
C       0.952248   -3.035285   -1.501773
C       1.488773   -2.013395    0.946548
H       0.060767    1.847139    0.699003
H      -0.702415    1.465428   -0.867335
H      -1.295223    0.691623    0.630074
H       1.491344    0.042469    1.676148
H      -0.019327   -1.668652    2.767264
H      -1.063765   -3.437803    1.148593
H      -1.384866   -2.023277    0.112090
H       2.134116   -4.540551   -0.335593
H       0.386247   -4.997771   -0.573743
H       0.092365   -3.039863   -2.163852
H       1.840585   -2.582946   -1.929768
H       2.466540   -2.265932    1.342558
