16

C       0.013782    1.571689    0.015589
C       0.025915    0.049467    0.065658
C       0.739223   -0.632268   -1.145884
O       1.536642   -1.729501   -0.620795
C       1.645144   -1.501716    0.703230
C       2.274391   -1.970533    1.828812
N       1.809947   -1.217119    2.877957
N       0.944953   -0.329801    2.467331
N       0.857837   -0.500211    1.125980
H       1.029132    1.964214   -0.091124
H      -0.588445    1.916672   -0.830362
H      -0.418461    1.977046    0.933355
H      -0.997147   -0.329376    0.178426
H       0.044977   -1.043559   -1.879562
H       1.415194    0.075276   -1.639173
H       2.995807   -2.757131    1.960746
