16

N      -0.127326    1.278934   -0.090631
C       0.017420   -0.041576    0.219844
O       0.926034   -0.532640    0.838357
O      -1.086422   -0.728599   -0.228993
C      -1.004496   -2.121346   -0.128915
C      -1.202949   -2.777803    1.220886
C      -2.304766   -2.824463    0.210757
C      -0.096432   -2.769685   -1.109746
O       0.550483   -2.178002   -1.933789
H       0.700521    1.841073    0.013178
H      -0.764945    1.525090   -0.829396
H      -0.635916   -3.678294    1.429632
H      -1.295020   -2.094184    2.055080
H      -3.155525   -2.167448    0.346387
H      -2.520660   -3.758348   -0.296443
H      -0.072254   -3.880444   -1.023700
