15

O       0.124959    1.403219    0.162868
C       0.025552    0.030301    0.049713
C      -0.438453   -0.844791    1.164193
C      -1.337469   -0.676359   -0.064437
C      -2.548262    0.138095    0.023867
N      -2.640182    1.204307    0.788354
O      -3.923121    1.700224    0.525074
C      -4.456443    0.865867   -0.365677
N      -3.685894   -0.109216   -0.724334
H      -0.680747    1.745446    0.582199
H       0.800481   -0.350239   -0.607608
H       0.022766   -1.815833    1.307574
H      -0.778242   -0.356650    2.071620
H      -1.427409   -1.507004   -0.752933
H      -5.463374    1.078474   -0.694201
