20

C      -0.280369    1.102072   -0.649617
O      -0.312902    0.184627    0.424282
C      -1.363280   -0.723875    0.327142
C      -1.207847   -1.966090   -0.526239
C      -1.200024   -2.056006    0.992114
C       0.111543   -2.376546    1.681033
C      -2.411848   -2.644855    1.704332
O      -3.655075   -2.375764    1.074155
H       0.567262    1.769975   -0.478400
H      -0.150100    0.592923   -1.615615
H      -1.202174    1.701427   -0.697451
H      -2.356863   -0.275538    0.354289
H      -2.070856   -2.311285   -1.086964
H      -0.256320   -2.109482   -1.027551
H       0.941731   -1.851221    1.206599
H       0.085542   -2.067890    2.732848
H       0.316200   -3.453036    1.653445
H      -2.263908   -3.728584    1.837504
H      -2.485467   -2.205361    2.706357
H      -3.727761   -2.951483    0.307338
