16

C      -0.125480    1.645550    0.142401
N      -0.293983    0.302593   -0.400047
C      -0.181129   -0.796220    0.558967
C      -1.505820   -0.399682    0.007669
C       1.306049    2.064710    0.038284
C       2.328178    1.570297   -0.707239
O       3.425477    2.286157   -0.468447
N       3.052132    3.283257    0.481912
N       1.833066    3.122700    0.748118
H      -0.758175    2.328419   -0.439119
H      -0.451148    1.732998    1.193567
H       0.321238   -1.688466    0.197902
H       0.022978   -0.544700    1.598151
H      -2.189703    0.114968    0.680455
H      -1.986176   -0.995940   -0.762281
H       2.400106    0.755381   -1.406653
