11

O       0.035613   -0.043495    0.004032
C      -0.022043    1.156014    0.007520
C       1.164896    2.013151    0.001291
N       2.161952    2.595925   -0.004306
N      -1.233255    1.856634    0.018052
C      -2.504021    1.337287    0.025833
N      -3.377668    2.306078    0.034673
C      -2.590134    3.437060    0.031907
N      -1.296412    3.223327    0.022089
H      -2.691635    0.275336    0.024420
H      -3.001017    4.435404    0.037479
