21

C       0.119684    1.481220    0.004732
C       0.193017   -0.055880   -0.106524
C       0.811341   -0.486932   -1.437714
C       0.958307   -0.629087    1.079714
N       2.153600   -1.035039    0.971962
N       0.191256   -0.617007    2.272130
C       0.594070   -1.015694    3.532094
C      -0.483687   -0.876765    4.595386
O       1.706518   -1.440706    3.774817
H       1.124009    1.912258   -0.053584
H      -0.478684    1.895564   -0.812219
H      -0.329101    1.808303    0.948507
H      -0.834595   -0.447280   -0.055897
H       1.845089   -0.141846   -1.508403
H       0.824082   -1.575359   -1.533560
H       0.239432   -0.068655   -2.272043
H       2.507466   -1.355144    1.873964
H      -0.757529   -0.286071    2.187377
H      -1.358769   -1.486479    4.346503
H      -0.075193   -1.206793    5.549614
H      -0.814724    0.163421    4.683359
