17

C       0.073330    1.426479    0.104397
N       0.060843   -0.025543    0.020644
C      -1.049982   -0.630058   -0.075757
C      -1.097859   -2.143409   -0.104909
O      -2.164446   -2.619374   -0.902757
C      -3.415192   -2.198722   -0.408389
C      -3.524833   -0.687130   -0.240186
O      -4.580267   -0.097936   -0.194155
N      -2.310896   -0.028841   -0.129665
H       1.103219    1.769588    0.223241
H      -0.328881    1.897964   -0.804741
H      -0.502510    1.806306    0.962527
H      -0.166427   -2.514355   -0.531426
H      -1.185941   -2.524036    0.927513
H      -4.180653   -2.514087   -1.119564
H      -3.643568   -2.664006    0.566408
H      -2.382128    0.977603   -0.061290
