23

C      -0.146907    1.585698    0.017893
C       0.014468    0.052518    0.036096
C       0.677770   -0.444193   -1.225967
C       1.915811   -0.939542   -1.308058
C       2.506584   -1.420988   -2.605864
C       2.804728   -1.066933   -0.090197
C       2.281416   -0.272201    1.113574
C       0.771611   -0.467287    1.270084
O       0.251901    0.193643    2.417342
H       0.823665    2.090335   -0.013881
H      -0.705659    1.894254   -0.871692
H      -0.684009    1.927769    0.904511
H      -0.998735   -0.370764    0.078335
H       0.082039   -0.366095   -2.134305
H       1.798341   -1.328864   -3.433498
H       3.410796   -0.854221   -2.864128
H       2.812343   -2.473404   -2.535751
H       2.898779   -2.131879    0.172606
H       3.823381   -0.743961   -0.342049
H       2.796103   -0.590358    2.029491
H       2.494032    0.795084    0.986253
H       0.575735   -1.550957    1.343148
H       0.740703   -0.119612    3.184768
