16

C       0.009174    1.612887   -0.186040
C      -0.021718    0.107797    0.126750
C      -1.410320   -0.445429    0.153947
C      -2.088561   -1.013005    1.220843
N      -3.339593   -1.353525    0.726944
C      -3.357659   -0.986458   -0.576121
N      -2.220397   -0.439802   -0.951423
C      -1.703589   -1.247764    2.555273
N      -1.385785   -1.440755    3.653849
H       1.040726    1.971195   -0.247789
H      -0.485976    1.814707   -1.139359
H      -0.504896    2.186006    0.591690
H       0.551554   -0.430515   -0.637611
H       0.462973   -0.091168    1.087956
H      -4.079518   -1.793689    1.249305
H      -4.221621   -1.141525   -1.205255
