18

C      -0.217932    1.601667   -0.086151
C       0.051350    0.103379   -0.065194
C       0.723093   -0.584799   -1.265465
C       2.169388   -0.242838   -1.404508
O       2.632671    1.048853   -1.151669
C       1.786474   -1.221172   -0.334608
C       1.165635   -0.509943    0.880027
C       2.038277    0.379952    1.638309
N       2.742856    1.066872    2.246630
H       0.691686    2.167915   -0.284397
H      -0.946935    1.835879   -0.869581
H      -0.639753    1.931755    0.869155
H      -0.876147   -0.428055    0.167348
H       0.174572   -1.046627   -2.077923
H       2.640359   -0.725019   -2.262696
H       3.426642    0.998166   -0.607976
H       2.175126   -2.231695   -0.302672
H       0.722148   -1.221172    1.580423
