15

O       0.020700    1.390322   -0.142247
C       0.031556   -0.017733   -0.013153
C       0.678344   -0.468015    1.291769
O       0.533729   -1.875136    1.468816
C      -0.663769   -2.459470    1.238597
N      -0.901230   -3.581705    1.762877
O      -1.521765   -1.857411    0.366984
C      -1.418445   -0.468348    0.044153
H       0.912271    1.686867   -0.349678
H       0.535284   -0.505873   -0.859965
H       1.755319   -0.280034    1.306153
H       0.220512    0.076634    2.129070
H      -1.809770   -3.916392    1.448708
H      -1.947649    0.132026    0.796247
H      -1.921532   -0.341364   -0.916350
