20

C      -0.149724    1.575602   -0.013581
C       0.023158    0.057695    0.001002
O      -1.257137   -0.580906    0.021317
C       0.895126   -0.503086   -1.161180
N       1.589886   -1.696915   -0.638223
C       2.550406   -1.458707    0.453652
C       2.282150   -0.141738    1.193133
C       0.764963   -0.518047    1.211712
C       1.164753   -1.942856    0.733963
H       0.807126    2.100885    0.051764
H      -0.638244    1.898444   -0.941304
H      -0.779882    1.890669    0.823100
H      -1.739779   -0.304873   -0.765178
H       0.260709   -0.804490   -2.001298
H       1.619055    0.229095   -1.533686
H       3.491688   -1.995434    0.409109
H       2.707168   -0.166824    2.199402
H       2.580846    0.794603    0.710208
H       0.233153   -0.396136    2.154159
H       0.769173   -2.904152    1.035427
