18

C       0.259087    1.484916   -0.004663
C      -0.067890   -0.011447   -0.040492
C       0.625187   -0.761495   -1.193301
N       1.870051   -1.221582   -0.576684
C       2.959517   -1.599326   -1.339410
O       4.011520   -2.027097   -0.947219
C       1.743729   -1.258453    0.831100
N       2.632889   -1.698499    1.620206
N       0.465591   -0.755062    1.102269
H       1.341314    1.649766   -0.016162
H      -0.179756    1.998404   -0.866477
H      -0.146780    1.948277    0.900669
H      -1.152258   -0.149118   -0.099670
H       0.015862   -1.610342   -1.526398
H       0.824930   -0.116222   -2.052078
H       2.735072   -1.440473   -2.415708
H       2.324843   -1.613062    2.588124
H       0.340318   -0.358661    2.022203
