17

C       0.026487    1.337178    0.333858
O      -0.035090    0.031861   -0.229811
C      -1.263927   -0.557058   -0.140412
C      -1.900674   -1.054189    1.144275
C      -1.642041   -2.003114    0.004453
O      -2.682483   -1.914681   -0.974789
C      -2.344362   -0.545512   -1.262057
C      -3.451267    0.458670   -1.085529
O      -4.494315    0.252954   -0.521533
H       1.061260    1.671391    0.240427
H      -0.626843    2.038292   -0.203794
H      -0.262285    1.327425    1.392332
H      -1.191791   -1.136836    1.962849
H      -2.921423   -0.801965    1.414960
H      -1.060992   -2.915221    0.052563
H      -1.883225   -0.447842   -2.253772
H      -3.192496    1.466713   -1.490920
