17

C      -0.063387    1.471362    0.023659
C       0.015989   -0.027562   -0.040109
C       0.234420   -0.819326   -1.347624
C      -0.504145   -1.924752   -0.578974
C       0.284735   -2.248641    0.697959
C      -0.638748   -1.395993    1.514645
C       0.681738   -0.817256    1.105036
N      -1.268618   -0.859660    0.237506
H       0.920553    1.919657   -0.158012
H      -0.760867    1.855785   -0.726586
H      -0.407434    1.799945    1.010074
H      -0.377899   -0.416954   -2.160073
H       1.255800   -1.003963   -1.689899
H      -1.081124   -2.707921   -1.070730
H       0.859535   -3.122675    0.975032
H      -1.136960   -1.529461    2.466379
H       1.561050   -0.591593    1.694985
