15

O       0.003025    1.412405    0.009899
C      -0.012716    0.010286    0.003452
C      -1.460851   -0.481271    0.012478
O      -2.398372    0.283531    0.023056
C      -1.658734   -1.944765    0.007606
C      -0.729371   -2.948444   -0.003635
O      -1.330102   -4.156283   -0.004338
C      -2.679792   -3.931172    0.006622
C      -2.938757   -2.604025    0.014230
H       0.920786    1.699017    0.003737
H       0.479486   -0.415864   -0.888024
H       0.493413   -0.424153    0.883049
H       0.348394   -2.963793   -0.011684
H      -3.294704   -4.815376    0.007378
H      -3.898401   -2.114220    0.023448
