17

C      -0.459846    1.375568    0.305345
C       0.025092    0.003713   -0.019969
C       0.885566   -0.473026   -0.977721
N       1.027510   -1.838394   -0.884997
C       0.259950   -2.195605    0.121774
C       0.091584   -3.603544    0.601335
C      -0.825772   -3.846828    1.771792
O      -1.454449   -3.010451    2.377460
N      -0.367278   -1.118787    0.677832
H      -0.191942    1.678512    1.324949
H      -0.012741    2.097415   -0.382241
H      -1.549558    1.461900    0.214740
H       1.410513    0.097299   -1.729818
H      -0.263581   -4.248455   -0.216875
H       1.066975   -4.037403    0.869271
H      -0.894019   -4.916721    2.064487
H      -0.998529   -1.188543    1.462483
