15

N       0.092356    1.346111   -0.147182
C      -0.046172   -0.007176   -0.050033
C      -1.223696   -0.690173    0.003636
C      -1.116247   -2.115064    0.040837
N      -2.254323   -2.861501    0.130829
N       0.021583   -2.768162    0.027540
C       1.189501   -2.088585   -0.010093
N       2.345854   -2.604441   -0.015546
O       1.129702   -0.632305   -0.053452
H       0.998905    1.714051    0.095379
H      -0.696645    1.913301    0.115834
H      -2.174019   -0.175664    0.020674
H      -3.132872   -2.455800   -0.141841
H      -2.139122   -3.851932   -0.016717
H       3.058187   -1.878763   -0.054576
