20

C       0.005740    1.566234   -0.129103
N       0.077129    0.142949    0.100446
C      -1.158048   -0.610954    0.491822
C      -0.197754   -1.572027    1.209834
C       0.571000   -2.395253    2.268871
C       1.569796   -1.854478    1.143376
O       0.603110   -2.287263    0.159765
C       0.838894   -0.446347    1.240711
C       1.132638    0.478927    2.402727
H       1.006361    1.956619   -0.340711
H      -0.611242    1.757835   -1.014180
H      -0.421084    2.150923    0.707139
H      -1.817058   -0.050559    1.173318
H      -1.735033   -1.024900   -0.340023
H       0.621749   -2.007886    3.288245
H       0.432390   -3.475844    2.230329
H       2.614349   -2.150067    0.994710
H       1.827118    1.264714    2.084086
H       0.231745    0.976230    2.779257
H       1.607419   -0.046161    3.234756
