20

C       0.082262    1.569335    0.010692
C       0.014541    0.035190    0.022806
C       0.789406   -0.529901    1.220879
C      -1.431731   -0.492296    0.033829
C      -2.237891   -0.132698   -1.214643
C      -3.616288   -0.748527   -1.236044
O      -4.083967   -1.456689   -0.381413
C      -4.417481   -0.415692   -2.439831
N      -5.029451   -0.146817   -3.383388
H       1.121707    1.911794    0.026429
H      -0.388480    2.001196   -0.877982
H      -0.417829    1.988882    0.892013
H       0.498109   -0.332756   -0.894305
H       0.346062   -0.195319    2.166206
H       0.784555   -1.624705    1.220106
H       1.832331   -0.197691    1.207932
H      -1.420043   -1.582878    0.136738
H      -1.955235   -0.114987    0.921050
H      -2.369767    0.951828   -1.330421
H      -1.724819   -0.451280   -2.134435
