13

O       0.056664    1.436487    0.008138
C       0.018532    0.037717    0.001677
C      -1.409132   -0.446287    0.012579
N      -2.370327    0.410687    0.023303
O      -3.648799   -0.106931    0.032629
C      -3.933221   -1.478921    0.030732
O      -5.081004   -1.801446    0.039548
N      -2.855460   -2.372886    0.019101
C      -1.674257   -1.869912    0.010739
H       0.977478    1.714376   -0.002744
H       0.510344   -0.394018   -0.888747
H       0.526698   -0.402602    0.878643
H      -0.829348   -2.562242    0.001502
