14

C      -0.017349    1.517198    0.045503
C      -0.003483    0.023562   -0.055204
C      -0.038364   -0.682417   -1.216497
N      -0.023031   -2.055463   -1.239766
C       0.025720   -2.686742   -0.130472
F       0.040912   -4.007891   -0.138362
C       0.068749   -2.084177    1.215101
O       0.115046   -2.671182    2.276307
N       0.048639   -0.693588    1.117562
H       0.882000    1.890349    0.549328
H      -0.059883    1.963344   -0.949330
H      -0.885037    1.869479    0.615522
H      -0.079942   -0.179955   -2.173983
H       0.076065   -0.212214    2.007434
