19

C      -0.292689    1.367957   -0.114368
O       0.140720    0.030079    0.086811
C       0.731417   -0.518075   -1.026080
C      -0.016757   -1.042006   -2.221112
C       0.835004   -1.980960   -1.382497
C       2.366728   -1.776331   -1.657144
C       3.436482   -2.801359   -1.483788
O       2.523833   -0.769758   -2.678557
C       2.267089   -0.357648   -1.326775
H       0.544202    2.030464   -0.375860
H      -1.045966    1.426833   -0.911277
H      -0.732332    1.704359    0.826983
H      -1.081763   -1.158890   -2.044208
H       0.271408   -0.788610   -3.233467
H       0.425796   -2.833865   -0.857695
H       3.354761   -3.582565   -2.248210
H       4.423141   -2.338458   -1.568247
H       3.354633   -3.281369   -0.503102
H       2.959433    0.331394   -0.855567
