15

N      -0.456050    0.920612    1.016954
C      -0.199276   -0.196816    0.238578
C      -0.967115   -0.885893   -0.685001
N      -0.188815   -1.843269   -1.268045
N       1.002694   -1.812489   -0.760090
N       1.007983   -0.805339    0.157768
C      -2.383335   -0.679132   -1.042899
C      -3.479189   -0.845562   -0.070591
O      -3.019915    0.461235   -0.435653
H      -0.174589    0.839622    1.985545
H      -1.428733    1.193281    0.931115
H       1.864421   -0.570038    0.632664
H      -2.622717   -0.824001   -2.095452
H      -4.479642   -1.095123   -0.419510
H      -3.242085   -1.157810    0.944629
