22

C      -0.368085    1.433493    0.186192
C      -0.550222    0.013582   -0.349782
N       0.646308   -0.476786   -1.035431
C       0.851038    0.103867   -2.362965
C       0.536007   -0.993950   -3.393827
O       0.583360   -0.869545   -4.588966
C       0.170029   -2.250188   -2.606244
C       0.712392   -1.953446   -1.193428
C       2.150109   -2.450440   -1.011792
H       0.494520    1.477782    0.857185
H      -0.204214    2.156112   -0.619610
H      -1.260133    1.750475    0.735855
H      -0.741351   -0.657596    0.494160
H      -1.453213   -0.023105   -0.990614
H       0.206101    0.969750   -2.542922
H       1.883576    0.443843   -2.520291
H      -0.924044   -2.336073   -2.602996
H       0.570035   -3.147298   -3.083677
H       0.084559   -2.409241   -0.423455
H       2.815894   -2.030318   -1.774268
H       2.533451   -2.153673   -0.032297
H       2.197518   -3.541509   -1.094052
