18

C       0.123810    1.632029    0.040948
C       0.052195    0.120985    0.042084
C       1.312794   -0.729186   -0.120319
C       2.605676   -0.123723   -0.285158
N       3.658254    0.314750   -0.481965
C       0.542564   -0.717529    1.194992
C       1.057770   -0.137818    2.477042
C       2.424992   -0.350228    2.976704
O       2.020439    0.908459    2.430001
H       1.023047    1.995288    0.539553
H       0.122238    2.011040   -0.985878
H      -0.746184    2.054051    0.554820
H      -0.806103   -0.285926   -0.486188
H       1.210317   -1.636279   -0.707990
H      -0.014798   -1.634850    1.371552
H       0.272646    0.019633    3.219987
H       2.610380   -0.349974    4.049298
H       3.139181   -0.904675    2.372314
