19

C       0.028248    1.447532   -0.223678
C       0.024835   -0.056210    0.097460
C       0.858099   -0.372877    1.347476
C      -1.385544   -0.558159    0.233160
C      -2.424525   -0.284015    1.344080
C      -2.969341   -1.715146    1.048114
O      -3.740806   -2.435660    1.606269
C      -1.962618   -1.898832   -0.080113
O      -2.161862   -0.756542   -0.946525
H       1.050141    1.803356   -0.386263
H      -0.555207    1.657290   -1.124485
H      -0.400013    2.026666    0.602182
H       0.457076   -0.590168   -0.758171
H       0.472689    0.155105    2.226443
H       0.859741   -1.444551    1.569445
H       1.895141   -0.056121    1.202596
H      -2.028076   -0.236072    2.362529
H      -3.094893    0.557626    1.160922
H      -1.530744   -2.790887   -0.519120
