16

C      -0.054542    1.397477    0.078105
O       0.007515   -0.016847   -0.005897
C       0.663173   -0.542450   -1.157221
C       0.586856   -2.072758   -0.994008
C      -0.024628   -0.133471   -2.398937
C      -0.609043    0.179521   -3.400889
C       2.075091   -0.111690   -1.213102
C       3.229909    0.219090   -1.232970
H       0.947431    1.843721    0.113261
H      -0.608034    1.827711   -0.766207
H      -0.582199    1.622125    1.007223
H      -0.462050   -2.371735   -0.943930
H       1.068587   -2.569305   -1.837926
H       1.090195   -2.355643   -0.067335
H      -1.118476    0.461498   -4.289457
H       4.249939    0.514768   -1.259394
