17

C      -0.199580    1.569568   -0.117989
C       0.158041    0.083563   -0.037328
N       0.795640   -0.422741   -1.238772
C       0.125696   -0.632957   -2.504536
C       1.219241   -1.247662   -3.387480
O       1.129294   -1.584203   -4.540462
N       2.324942   -1.328224   -2.571717
C       2.098566   -0.849682   -1.264434
O       2.909715   -0.834105   -0.368957
H       0.696823    2.175411   -0.278002
H      -0.902223    1.773684   -0.932455
H      -0.671394    1.892558    0.814877
H       0.865170   -0.095788    0.776015
H      -0.742397   -0.511557    0.166603
H      -0.722735   -1.325379   -2.425114
H      -0.239113    0.294476   -2.961923
H       3.218290   -1.696812   -2.856629
