21

C      -0.119465    1.533901    0.006722
C       0.027169    0.016146   -0.016180
C       1.099845   -0.595006   -0.968677
C       2.386206   -0.043428   -0.280735
O       2.068172   -0.071014    1.111612
C       0.711081   -0.626284    1.219359
C       0.191131   -0.346919    2.608027
C       0.809716   -2.076870    0.763654
C       1.036121   -2.052658   -0.553974
H       0.789307    2.026957    0.359856
H      -0.355139    1.918243   -0.991684
H      -0.937679    1.831755    0.670736
H      -0.940635   -0.455281   -0.206362
H       1.019593   -0.372393   -2.032964
H       3.265141   -0.665911   -0.485465
H       2.605303    0.986529   -0.589111
H       0.168138    0.727522    2.807764
H      -0.820094   -0.748606    2.724817
H       0.835614   -0.815536    3.357913
H       0.804725   -2.932678    1.427483
H       1.255594   -2.890386   -1.204383
