10

O       0.064119    1.341896    0.007897
C      -0.066044    0.010854    0.001215
C      -1.144656   -0.779704    0.003465
N      -0.629499   -2.096670   -0.006804
C       0.733716   -2.090933   -0.014844
O       1.534173   -2.983623   -0.025009
O       1.086063   -0.728775   -0.009798
H       1.006156    1.549873    0.000910
H      -2.193641   -0.552161    0.010989
H      -1.159200   -2.949437   -0.008590
