16

C       0.028440    1.543056    0.130146
C      -0.020412    0.020901    0.016705
O      -1.341249   -0.480480    0.115155
C       0.681161   -0.513978   -1.268552
C       0.784432   -2.049963   -1.261983
C      -0.057777   -0.047269   -2.446530
N      -0.683362    0.327810   -3.344043
H       1.060994    1.905823    0.161472
H      -0.469298    2.016136   -0.723791
H      -0.478625    1.860807    1.044539
H       0.513099   -0.424392    0.864566
H      -1.873782   -0.052468   -0.566948
H       1.687464   -0.079250   -1.316399
H      -0.206880   -2.488137   -1.132153
H       1.220428   -2.423043   -2.191413
H       1.417023   -2.369957   -0.429040
