13

C       0.005433    1.443982    0.042913
N      -0.010996    0.001689   -0.073926
C       0.014456   -0.764410   -1.199648
C      -0.013648   -2.057647   -0.719378
N      -0.069712   -3.271765   -1.400068
N      -0.055748   -2.011222    0.639484
N      -0.059204   -0.759682    1.024086
H       0.919286    1.857708   -0.393533
H      -0.862312    1.882934   -0.458001
H      -0.029900    1.680242    1.106265
H       0.042086   -0.344214   -2.190059
H       0.541033   -3.318786   -2.204261
H       0.118405   -4.041156   -0.769593
