21

C      -0.732060    1.164690    0.226789
C      -0.097255   -0.207637    0.171635
C       1.301521   -0.400710   -0.357232
C       1.014617   -0.651180    1.104734
C       1.604629    0.252881    2.179607
C       0.864806    0.095538    3.505746
O       1.490424    0.955167    4.444833
C       3.073826   -0.104160    2.351866
O       3.990034    0.514765    1.879702
H       0.000374    1.949155    0.435795
H      -1.199288    1.406888   -0.733942
H      -1.510874    1.219118    0.995888
H      -0.799856   -0.998632   -0.079779
H       1.515746   -1.248016   -0.999119
H       1.872627    0.491131   -0.596528
H       0.973554   -1.697440    1.401531
H       1.569191    1.299279    1.865089
H      -0.198248    0.342211    3.367508
H       0.917488   -0.957788    3.830089
H       1.077056    0.825254    5.303325
H       3.249548   -1.042431    2.931870
