16

C      -0.148938    1.509370   -0.161209
C      -0.059824    0.021578   -0.102835
N      -0.045216   -0.798164   -1.142138
C       0.044037   -2.027227   -0.567178
N       0.082058   -2.030946    0.753198
N       0.007450   -0.702796    1.044051
C       0.088283   -0.263355    2.416824
C       1.528848   -0.203517    2.928627
O       1.865965    0.487385    3.850352
H       0.721154    1.990759    0.297705
H      -0.198402    1.809811   -1.208023
H      -1.043359    1.883315    0.349134
H       0.077561   -2.944254   -1.136440
H      -0.377801    0.717142    2.533097
H      -0.461190   -0.979933    3.036776
H       2.234027   -0.867574    2.383835
