18

O      -0.092213    0.994014   -0.509442
C      -0.299407   -0.345463   -0.154395
C      -0.466281   -0.647092    1.314230
O      -0.426358    0.472595    2.166108
C      -1.659982   -0.743808    0.392038
C      -2.770470    0.293653    0.431278
N      -3.068548    0.811606   -0.895802
C      -4.268188    0.651083   -1.506625
O      -5.240670    0.106395   -1.023565
H      -0.042805    1.486156    0.323181
H       0.241942   -1.029537   -0.800241
H      -0.062835   -1.561898    1.741492
H       0.460499    0.528463    2.538222
H      -1.983163   -1.754251    0.159527
H      -3.694670   -0.147136    0.808680
H      -2.499548    1.115377    1.099594
H      -2.303893    1.240242   -1.395137
H      -4.268446    1.089258   -2.525047
