21

C       0.189619    1.516552    0.118340
C       0.175620   -0.012784    0.064043
C       0.562422   -0.561957   -1.314716
O       1.888461   -0.133608   -1.668047
C       2.695666   -1.257170   -1.956233
C       3.717527   -1.125871   -3.057825
C       4.159031   -1.179778   -1.607807
C       1.847238   -2.449481   -1.748897
C       0.625017   -2.066075   -1.393479
H       1.181393    1.898415   -0.137577
H      -0.527815    1.943780   -0.591510
H      -0.071863    1.879059    1.117002
H       0.867889   -0.427499    0.806189
H      -0.824507   -0.391108    0.313740
H      -0.141400   -0.153325   -2.061097
H       3.909456   -1.981251   -3.697095
H       3.760126   -0.163512   -3.555407
H       4.492327   -0.252779   -1.154581
H       4.657132   -2.072000   -1.242839
H       2.207702   -3.461012   -1.884447
H      -0.223227   -2.702587   -1.177185
