25

C       1.066891   -0.478541   -0.950340
C       0.006747    0.185367   -0.060736
C      -0.159830    1.662290   -0.455394
C      -1.355088   -0.507390   -0.055981
C      -1.869139   -1.386462   -1.179678
C      -1.575254   -1.974288    0.173964
C      -0.577990   -3.108492    0.471793
C      -1.751398   -3.913840    1.103093
C      -2.621469   -2.623352    1.094166
H       2.028779    0.030977   -0.831809
H       1.219321   -1.532443   -0.704524
H       0.791981   -0.414282   -2.008843
H       0.382183    0.161349    0.973601
H      -0.549748    1.749159   -1.476140
H      -0.857983    2.178257    0.212159
H       0.797323    2.193066   -0.415267
H      -2.122654    0.113563    0.405567
H      -2.905404   -1.280404   -1.486959
H      -1.191294   -1.633506   -1.990794
H      -0.072500   -3.566141   -0.383110
H       0.179817   -2.826589    1.210578
H      -2.138271   -4.678687    0.425287
H      -1.563859   -4.375287    2.075075
H      -2.674011   -2.144640    2.078081
H      -3.637920   -2.714389    0.700093
