22

C      -0.170145    1.539188   -0.041677
C       0.038266    0.026086    0.009044
C       0.815414   -0.473682   -1.225660
C       1.008177   -1.995657   -1.203662
C       1.648864   -2.447866    0.114156
C       0.854252   -1.913731    1.309753
N       0.698228   -0.462353    1.226546
C       1.168812    0.313209    2.243816
O       1.720697   -0.104791    3.245012
H       0.778445    2.084636   -0.063414
H      -0.712190    1.781663   -0.960292
H      -0.763136    1.905721    0.800565
H      -0.958328   -0.445268   -0.017377
H       0.278751   -0.169600   -2.131568
H       1.792662    0.026913   -1.244894
H       0.030176   -2.483889   -1.317197
H       1.615259   -2.312123   -2.058396
H       1.698021   -3.540864    0.167293
H       2.678501   -2.074672    0.176901
H      -0.143442   -2.377710    1.329494
H       1.347691   -2.125383    2.258390
H       1.003698    1.388890    2.076920
