18

C       1.365996    1.081120   -0.473111
C       0.282772    0.098437   -0.110541
N       0.702690   -1.174803    0.469949
C      -0.073536   -0.228555    1.315036
C       0.597943    0.371868    2.428405
C       1.123400    0.901945    3.379109
C       1.760784    1.525551    4.521739
C       3.276305    1.536536    4.494570
O       1.113805    2.001844    5.431145
H       2.166732    1.061570    0.268874
H       1.794903    0.829798   -1.448606
H       0.963869    2.097826   -0.528503
H      -0.567006    0.077348   -0.792226
H       0.089723   -1.930370    0.173978
H      -1.119011   -0.468033    1.496604
H       3.659064    0.512777    4.424169
H       3.632614    2.072014    3.607858
H       3.653866    2.017425    5.398145
