18

C      -0.190427    1.437709   -0.032292
N       0.023465    0.003078    0.079361
C       1.359243   -0.493727   -0.201980
C       0.846450   -0.497748    1.195029
C       1.384481    0.324179    2.351692
C       0.667121   -0.316456    3.555291
O       0.324963   -1.655727    3.160192
C       0.347669   -1.788805    1.805283
O       0.028888   -2.796169    1.246283
H       0.696054    2.052012    0.196181
H      -0.493958    1.657112   -1.060321
H      -1.005497    1.740999    0.632438
H       1.409771   -1.433633   -0.744555
H       2.138485    0.233157   -0.432931
H       2.467745    0.197547    2.440305
H       1.178601    1.393286    2.275212
H       1.291906   -0.382770    4.448000
H      -0.256322    0.214681    3.812250
