18

C      -0.028502    1.480006    0.028828
O       1.425343    1.480795    0.083366
C       1.481192    0.079322   -0.314701
C       2.227518   -0.900372    0.591677
C       1.580843   -2.280641    0.410602
N       0.702787   -2.758334    1.498701
C       0.105431   -2.384109    0.193508
C      -0.681759   -1.115848    0.183553
C      -0.006584   -0.018968   -0.123004
H      -0.484769    1.882973    0.940708
H      -0.398935    2.044940   -0.838364
H       1.826663    0.000082   -1.355946
H       3.298714   -0.938509    0.370907
H       2.101868   -0.577247    1.628051
H       2.194147   -3.026633   -0.088604
H       0.760805   -3.772206    1.569947
H      -0.254141   -3.197691   -0.433973
H      -1.721143   -1.120054    0.499060
