18

C      -0.089170    1.580920   -0.043422
C       0.053904    0.084548    0.256669
C      -1.274034   -0.637950    0.160603
O      -1.910649   -0.592929   -1.164495
C      -2.182250   -1.979121   -1.092310
C      -0.915242   -2.803288   -1.119060
C       0.257698   -2.425317   -1.859327
N       1.200843   -2.155857   -2.472632
C      -1.404112   -2.163793    0.182707
H       0.877160    2.086875    0.031596
H      -0.474805    1.733322   -1.055249
H      -0.778226    2.065996    0.657149
H       0.778513   -0.366599   -0.424943
H       0.433826   -0.064535    1.276188
H      -1.987619   -0.212672    0.879625
H      -3.140616   -2.342590   -1.444382
H      -1.103372   -3.874001   -1.130673
H      -1.596013   -2.773261    1.055057
