14

O       0.164978    1.421612   -0.093505
C       0.118257    0.042186   -0.065225
C       0.005467   -0.654272    1.326883
O      -1.372853   -0.116859    1.430089
C      -1.285661   -0.637212    0.041635
C      -0.613951   -1.907792    0.618793
O       0.137831   -2.664890   -0.279958
C      -1.458325   -2.738275    1.481248
N      -2.056723   -3.480118    2.134675
H      -0.481012    1.726478    0.560106
H       0.827361   -0.362330   -0.784690
H       0.635174   -0.600329    2.214659
H      -2.172911   -0.561962   -0.585588
H       0.537805   -3.406481    0.188052
