17

N       0.140620    1.329047    0.082621
C       0.087752    0.066859    0.020078
N      -1.044218   -0.672519   -0.240678
C      -0.762414   -2.067381   -0.479221
C      -0.752994   -2.515737   -1.958900
C       0.716301   -2.332795   -2.358100
O       1.443725   -2.653158   -1.166602
C       0.743626   -2.148817   -0.077236
O       1.127190   -0.802214    0.227814
H       1.084775    1.631116    0.309315
H      -1.838792   -0.200578   -0.637597
H      -1.394287   -2.714317    0.136213
H      -1.034015   -3.570651   -2.028340
H      -1.445012   -1.933988   -2.572242
H       1.054073   -3.013953   -3.141122
H       0.928860   -1.302572   -2.673262
H       0.985412   -2.765057    0.789890
