16

O       0.050677    1.453812    0.025044
C       0.054134    0.068835    0.002931
C      -0.519944   -0.718181    1.206586
C      -0.983187   -0.009036    2.357431
N      -1.361813    0.583882    3.277281
C      -1.271068   -0.577925   -0.117232
C      -2.626553    0.059540   -0.367807
C      -2.867119   -1.205888   -1.223621
O      -1.527813   -1.700293   -0.933122
H       0.670029    1.760575    0.697370
H       0.896798   -0.415700   -0.490736
H      -0.067589   -1.686961    1.393333
H      -3.260977    0.172795    0.511529
H      -2.584046    1.001444   -0.914698
H      -3.633176   -1.893813   -0.853172
H      -3.003850   -1.042481   -2.296519
