21

C      -0.119627    1.328926    0.181621
C      -0.117771   -0.183704   -0.043620
O      -1.454227   -0.671622   -0.232149
C       0.733855   -0.612619   -1.225018
O       0.288264   -0.043023   -2.437933
C       2.197644   -0.935983   -1.080062
C       1.189567   -2.037567   -1.362790
C       0.831025   -3.085098   -0.327827
O      -0.524534   -3.474763   -0.397457
H       0.890069    1.693449    0.398339
H      -0.497408    1.855465   -0.701436
H      -0.769452    1.580714    1.022971
H       0.244064   -0.676353    0.863529
H      -1.692725   -0.440089   -1.140004
H       0.627618    0.857361   -2.491731
H       2.858872   -0.636406   -1.885847
H       2.639432   -0.888947   -0.088879
H       1.166127   -2.390495   -2.389497
H       1.424927   -3.989351   -0.502239
H       1.102428   -2.725621    0.679512
H      -1.054554   -2.667150   -0.308133
