18

C       0.045532    1.543481    0.026557
C       0.000667    0.044865    0.022043
C       0.507190   -0.881687   -1.075541
C      -0.476743   -2.021107   -1.291024
C      -1.650903   -1.862184   -0.336388
C      -0.530958   -2.820181   -0.009553
N       0.053078   -1.896190    1.013359
C       1.043557   -1.005896    0.335934
C      -1.039479   -0.885741    0.683995
H       0.974389    1.911018   -0.421713
H      -0.787883    1.967847   -0.545910
H      -0.010933    1.942962    1.045419
H       1.125156   -0.487722   -1.872266
H      -0.613802   -2.499192   -2.251881
H      -2.691627   -2.040886   -0.574877
H      -0.493960   -3.898696    0.083926
H       2.081393   -0.940684    0.642424
H      -1.631246   -0.526769    1.526490
