20

O      -0.040445    1.445345   -0.033522
C       0.054143    0.030077    0.001451
C      -1.362763   -0.528808    0.004859
C      -1.396498   -2.054761    0.077116
N      -2.755799   -2.563461    0.046899
C      -3.608412   -2.345437    1.240818
C      -4.043634   -3.813700    1.125785
O      -4.891041   -4.491216    1.621484
C      -2.934147   -4.033221    0.087047
H       0.850445    1.806987   -0.040134
H       0.605000   -0.355376   -0.872512
H       0.593689   -0.311260    0.900581
H      -1.899516   -0.099483    0.859509
H      -1.885568   -0.195948   -0.897784
H      -0.864415   -2.477929   -0.784143
H      -0.855402   -2.398966    0.983551
H      -3.049698   -2.168969    2.176223
H      -4.382512   -1.578151    1.140622
H      -3.212429   -4.502237   -0.862645
H      -2.084959   -4.586126    0.523873
