20

C       0.370614    1.177770   -0.197984
O       0.033894   -0.181312    0.094510
C       0.595633   -0.669897    1.224274
O       1.354222   -0.050400    1.932209
N       0.116844   -1.938352    1.493033
C       0.082880   -3.041315    0.550576
C       0.958653   -3.095545    1.774901
C       2.457791   -2.961226    1.597724
C       0.521381   -3.923260    2.965932
H       1.448905    1.290997   -0.337670
H      -0.160018    1.421944   -1.118773
H       0.052399    1.839109    0.612061
H      -0.848003   -3.601901    0.517604
H       0.561778   -2.893399   -0.413994
H       2.711687   -2.428631    0.677435
H       2.895592   -2.407930    2.433336
H       2.919825   -3.952906    1.558003
H       0.886515   -4.951738    2.874105
H       0.924129   -3.503054    3.893510
H      -0.567976   -3.944205    3.047222
