21

C       0.150546    1.513326   -0.128011
C       0.056547   -0.015452   -0.170772
C      -1.370921   -0.533357   -0.026866
C      -1.571035   -2.056696    0.011479
O      -0.870171   -2.555528    1.153908
C      -2.182652   -2.020314    1.351337
C      -2.058437   -0.482135    1.392832
O      -1.277394    0.096894    2.397026
C      -1.848606   -0.001880    3.682800
H       1.186603    1.845858   -0.246603
H      -0.438175    1.971552   -0.931517
H      -0.221125    1.895560    0.826175
H       0.462301   -0.384885   -1.122231
H       0.666896   -0.452531    0.623837
H      -2.028823   -0.069557   -0.770183
H      -1.739001   -2.745958   -0.808264
H      -2.922738   -2.671462    1.802512
H      -3.053828   -0.012033    1.345920
H      -1.172110    0.500660    4.377615
H      -2.834582    0.487514    3.727813
H      -1.966261   -1.048782    3.998202
