21

C      -0.594420    1.013165   -0.134517
O       0.195867   -0.156199    0.028303
C       0.787894   -0.615784   -1.153183
C       1.998214    0.167301   -1.615645
C       0.811460   -2.121009   -1.332233
C      -0.115574   -2.961419   -0.466975
C      -1.521424   -2.368872   -0.721335
O      -1.436855   -1.525211   -1.879488
C      -0.096113   -1.276932   -2.194739
H       0.009670    1.880089   -0.435297
H      -1.388226    0.852951   -0.873096
H      -1.040999    1.226161    0.839811
H       2.779738    0.152039   -0.848563
H       2.411705   -0.262271   -2.532905
H       1.746552    1.212010   -1.826511
H       1.714612   -2.579420   -1.719484
H      -0.056523   -4.005183   -0.790226
H       0.140157   -2.921250    0.594856
H      -2.277210   -3.135812   -0.923306
H      -1.848796   -1.773122    0.135540
H       0.054256   -1.097602   -3.254666
