18

C      -0.069686    1.613410    0.010028
C       1.440731    1.263963   -0.005393
C       1.136213    0.167499    1.061087
C       2.095433   -1.010781    1.156207
O       2.096269   -1.788804   -0.027663
C       2.074293   -0.998106   -1.202900
C       1.117036    0.178985   -1.077956
C      -0.011544    0.062553    0.001176
H      -0.453844    2.082193    0.920768
H      -0.470068    2.091912   -0.888589
H       2.285320    1.956521   -0.009247
H       0.847053    0.543660    2.047933
H       3.112992   -0.648630    1.390416
H       1.797045   -1.691733    1.960516
H       3.087525   -0.633349   -1.451392
H       1.761491   -1.670408   -2.009006
H       0.810264    0.565693   -2.055362
H      -0.850303   -0.634750    0.004952
