15

C      -0.225156    1.806558   -0.057895
C       0.077797    0.316808   -0.011719
O       0.884108    0.058040    1.126203
C       1.752419   -0.982238    1.063454
N       2.411807   -1.299452    2.087267
C      -1.202993   -0.522358    0.082898
F      -1.948204   -0.351532   -1.020630
F      -0.911608   -1.827974    0.180131
F      -1.944290   -0.188495    1.139878
H       0.706121    2.365974   -0.164918
H      -0.878565    2.035426   -0.902642
H      -0.717076    2.116490    0.866526
H       0.587984   -0.005787   -0.929234
H       1.803683   -1.450831    0.072681
H       3.035095   -2.075578    1.875382
