14

O       0.042982    0.019563   -0.430932
C       0.024042    1.189554   -0.117919
N       1.063436    1.858506    0.473187
C       2.506403    1.614282    0.221502
C       2.603540    2.722369   -0.898362
N       3.703269    3.495852   -0.243686
C       2.899852    2.970322    0.905047
C       1.558490    3.224596    0.154412
H      -0.879803    1.827952   -0.202639
H       2.970505    0.632020    0.281046
H       2.487532    2.617327   -1.977696
H       4.588351    2.988738   -0.319436
H       3.128928    3.161037    1.953024
H       0.936762    4.117380    0.142236
