18

C      -0.025623    1.582147   -0.104936
C      -0.022327    0.051383   -0.037858
N       0.662160   -0.592467   -1.159696
C       2.114031   -0.647180   -1.167640
C       0.011257   -0.792880   -2.328613
C       0.470855   -1.198769   -3.573791
N      -0.622900   -1.279656   -4.378046
N      -1.684466   -0.972896   -3.810106
O      -1.296642   -0.618889   -2.380547
H       0.992043    1.984972   -0.118523
H      -0.547306    1.927597   -1.001720
H      -0.539452    1.995285    0.768583
H       0.471387   -0.289048    0.878544
H      -1.047086   -0.325062   -0.014429
H       2.451673   -1.544950   -1.693942
H       2.573072    0.228766   -1.646570
H       2.471153   -0.706558   -0.137205
H       1.462688   -1.419469   -3.922728
