17

C      -0.597423    1.408533   -0.032337
C      -0.053240   -0.004572    0.002631
O       1.130347   -0.162598   -0.830617
C       1.947961   -0.594858    0.257666
C       3.118381    0.316000    0.562747
O       3.285535    1.403946    0.080949
C       0.754935   -0.449836    1.224092
C       0.673007   -0.106105    2.641991
O       0.349379   -1.420769    2.150112
H       0.179302    2.125459    0.246391
H      -0.943188    1.650351   -1.041677
H      -1.446878    1.509802    0.651707
H      -0.820576   -0.739504   -0.273104
H       2.297964   -1.632347    0.153556
H       3.818715   -0.106903    1.321467
H       1.577743   -0.044939    3.244435
H      -0.171412    0.474119    3.009083
