20

C      -0.218103    1.537887    0.144709
C       0.031949    0.019615   -0.016846
N       0.760281   -0.394303   -1.217735
C       0.058929   -0.155874   -2.464187
C       2.151884    0.007487   -1.263569
C       2.867558   -0.280009    0.018855
C       2.223410   -0.560333    1.156437
C       0.752472   -0.495925    1.233544
O       0.139758   -0.752890    2.250356
H       0.721302    2.097371    0.204065
H      -0.800913    1.933229   -0.691937
H      -0.778055    1.718173    1.066180
H      -0.939743   -0.485198   -0.038175
H      -0.011313    0.909384   -2.750292
H       0.570988   -0.682200   -3.277476
H      -0.958138   -0.554268   -2.394085
H       2.643397   -0.542753   -2.078242
H       2.296901    1.081620   -1.514777
H       3.953748   -0.253495   -0.015341
H       2.743564   -0.798677    2.078639
