19

C       0.057620    1.485618    0.411349
N      -0.199706    0.054634    0.490907
C       0.653525   -0.696235    1.005711
C       0.771555   -2.181557    1.256037
C       2.169681   -1.815926    1.814259
O       1.901758   -0.398354    1.558776
C       2.454529   -2.094415    3.265229
C       3.169069   -1.098285    4.096760
N       1.735915   -1.374261    4.322779
H       1.046452    1.785313    0.777705
H      -0.044767    1.807957   -0.630318
H      -0.707061    2.019419    0.986487
H       0.069559   -2.572467    1.995422
H       0.750957   -2.806497    0.362286
H       3.001077   -2.153478    1.186202
H       2.603607   -3.153490    3.471738
H       3.833594   -1.428367    4.889610
H       3.436612   -0.156476    3.626961
H       1.197769   -0.619258    3.900957
