14

O      -0.112406    1.401106   -0.055311
C      -0.008926    0.034337   -0.057692
C       0.723252   -0.801732   -1.125159
C      -0.506818   -1.749199   -1.099873
O      -0.848457   -2.667823   -1.781083
C      -1.195989   -0.936400   -0.029397
C      -0.257213   -0.783991    1.185579
C       0.623861   -1.825070    1.644827
N       1.357576   -2.644691    2.002793
H       0.726057    1.778420    0.236409
H       0.770928   -0.283129   -2.086818
H       1.700017   -1.219736   -0.871561
H      -2.257452   -0.763702    0.096907
H      -0.728842   -0.213542    1.980529
