20

C      -0.014964    1.560295   -0.105955
C      -0.031295    0.061575    0.043900
O       1.229249   -0.618645   -0.108206
C       0.604725   -0.643162    1.163541
C       1.192003   -0.069703    2.455624
C       0.360317   -1.138094    3.225451
C       0.144632   -1.916359    1.889362
C      -1.217614   -2.518335    1.582582
H       0.822763    1.999950    0.440946
H       0.082048    1.839489   -1.160422
H      -0.947602    1.994979    0.270875
H      -0.856939   -0.443778   -0.461264
H       2.268634   -0.253023    2.518565
H       1.000638    0.982179    2.680909
H       0.864499   -1.671670    4.033066
H      -0.578519   -0.727504    3.608392
H       0.926494   -2.677359    1.776467
H      -2.013157   -1.772983    1.691964
H      -1.258040   -2.907699    0.559357
H      -1.442485   -3.348682    2.260653
