13

N       0.090763    1.379045    0.151114
C      -0.031085   -0.000027    0.050371
C      -1.210410   -0.688675    0.021033
C      -1.208264   -2.133584   -0.009166
O      -2.202488   -2.851096   -0.035630
C       0.159616   -2.703264   -0.025064
N       1.263522   -2.030852    0.000670
N       1.151736   -0.685350    0.033868
H       0.820472    1.789031   -0.417385
H      -0.784729    1.866466    0.024330
H      -2.155685   -0.159398    0.007470
H       0.257331   -3.784272   -0.057147
H       2.026325   -0.202185    0.160330
