15

C      -0.172450    1.708410    0.127867
C       0.077217    0.212259   -0.032680
O       1.009134   -0.048846   -1.062677
C       1.769087   -1.162254   -0.663248
O       1.757668   -1.183907    0.770174
C       0.747011   -0.401112    1.211384
O       0.454089   -0.247024    2.358959
C      -1.242730   -0.546582   -0.264656
O      -1.383451   -1.369820   -1.126188
H       0.778235    2.230052    0.255957
H      -0.678620    2.110675   -0.753554
H      -0.790103    1.884454    1.011793
H       1.339595   -2.102616   -1.028399
H       2.799468   -1.037935   -1.004195
H      -2.054531   -0.275741    0.443815
