19

C      -0.012672    1.458539   -0.034435
C       1.280701    0.710393    0.004960
C       2.203414    0.793468    1.175498
C       2.481000   -0.193385    2.029536
C       1.893603   -1.560444    1.972702
N       0.901956   -1.922560    3.015285
C       0.472450   -1.789196    1.610982
C      -0.401955   -0.593589    1.304367
N      -0.001418   -0.001065    0.026792
H      -0.300963    1.995308    0.868539
H      -0.368257    1.900612   -0.961562
H       1.801614    0.604459   -0.948356
H       2.720347    1.745257    1.291015
H       3.197647   -0.014929    2.829207
H       2.600887   -2.342822    1.696846
H       1.005350   -2.905165    3.256376
H       0.246417   -2.697476    1.057081
H      -1.453966   -0.890657    1.220361
H      -0.326158    0.106802    2.147221
