20

C      -0.157617    1.543808   -0.019274
N       0.080003    0.117558    0.078311
C       1.265778   -0.602836   -0.311376
C       2.664712    0.033585   -0.208409
C       3.072791    0.025462    1.274746
C       2.485845    1.015006    2.246738
O       1.877203    2.212993    1.874609
C       1.814108   -0.318587    2.080887
C       0.714679   -0.695822    1.090875
H       0.743430    2.153881   -0.123199
H      -0.803439    1.716842   -0.888893
H      -0.685980    1.889475    0.872357
H       1.128654   -1.374403   -1.069134
H       3.375727   -0.565711   -0.783713
H       2.688258    1.042047   -0.639856
H       4.042046   -0.397965    1.520611
H       3.040154    1.093084    3.184663
H       2.573576    2.826138    1.615011
H       1.863213   -0.978716    2.940905
H       0.105767   -1.534546    1.424656
