17

C      -0.034952   -1.160574   -0.088734
C      -0.017554    0.041583   -0.038866
C       0.015456    1.472647    0.015362
C       0.528757    2.176915    1.270216
C       1.349002    2.192143    0.024611
C       2.768250    1.605383   -0.168534
C       3.096148    2.871522   -0.984382
O       2.175284    2.931219   -2.077556
C       1.736843    3.407752   -0.797395
H      -0.056394   -2.220887   -0.134945
H      -0.788504    1.973504   -0.517252
H       0.018681    3.087610    1.567900
H       0.855227    1.548590    2.091503
H       3.327392    1.534927    0.768190
H       2.837548    0.664429   -0.718371
H       4.044904    3.381435   -1.100341
H       1.365066    4.424487   -0.738425
