17

N      -0.811266    1.255346    0.379919
C       0.329761    0.449921   -0.026168
C       1.050766   -0.236941    1.096924
N       0.784865   -0.205627    2.358743
N       1.750891   -1.009883    2.984639
C       2.514388   -1.455228    2.045164
C       3.706144   -2.360325    2.161257
N       4.029729   -2.776662    3.516806
O       2.136934   -1.010892    0.812345
H      -1.468591    0.670424    0.888585
H      -0.505178    1.952232    1.053417
H       0.000440   -0.309387   -0.746631
H       1.045920    1.080835   -0.567520
H       3.532962   -3.248132    1.540081
H       4.573857   -1.854502    1.719408
H       4.181216   -1.952519    4.091944
H       3.221543   -3.237047    3.926476
