20

C       0.139070    1.669286    0.466957
C      -0.103743    0.188556    0.286444
C       0.865806   -0.673964   -0.492394
C       0.755935   -0.838258    1.001882
O       1.780795   -0.298146    1.799505
C       0.092465   -2.039830    1.598871
C      -0.175237   -2.055023    3.080010
N      -0.243300   -2.979206    0.797918
O      -0.923191   -4.010853    1.466597
H       1.196569    1.871259    0.649293
H      -0.170840    2.223036   -0.426071
H      -0.426785    2.062969    1.318130
H      -1.147180   -0.100268    0.193827
H       0.483926   -1.466576   -1.122802
H       1.773681   -0.191824   -0.840981
H       2.555584   -0.862555    1.701130
H       0.318359   -1.215216    3.567743
H      -1.253446   -2.005511    3.267812
H       0.172627   -2.994232    3.519651
H      -1.086890   -4.637949    0.754492
