18

C      -0.115399    1.562129   -0.158586
C      -0.009331    0.036434   -0.076674
C      -1.353391   -0.606693    0.210924
O      -2.319571   -0.378340   -0.844035
C      -2.433376   -1.780539   -1.134203
C      -1.493939   -2.157839    0.044174
C      -0.317455   -2.946781   -0.251325
C       0.654879   -3.606519   -0.508014
H       0.851226    2.011226   -0.404308
H      -0.834381    1.853371   -0.929484
H      -0.451100    1.989468    0.792974
H       0.387163   -0.368188   -1.014404
H       0.691523   -0.260710    0.713808
H      -1.747741   -0.245582    1.170803
H      -3.464686   -2.140871   -1.046786
H      -2.041413   -2.035389   -2.125412
H      -2.040925   -2.603397    0.879247
H       1.513707   -4.189721   -0.731431
