16

O      -0.028531    1.388756    0.164049
C       0.074696    0.012061    0.096974
C       0.830202   -0.976254    0.980447
N       0.087334   -1.912887    0.033554
C      -1.133079   -0.958198    0.030265
C      -1.203247   -1.002554   -1.512446
C      -1.818490    0.157972   -2.244298
O      -2.563663    0.029143   -3.184517
C       0.294899   -0.934168   -1.141210
H       0.851055    1.773837    0.076417
H       1.919076   -1.038042    0.884804
H       0.520680   -1.076479    2.025107
H      -1.934201   -1.081865    0.759925
H      -1.533922   -1.954044   -1.935358
H      -1.538960    1.161475   -1.861034
H       1.168581   -1.023239   -1.788862
