20

C       0.049807    1.560905    0.076230
C      -0.076929    0.034766    0.073461
C      -1.516200   -0.515791   -0.080008
C      -2.115722   -0.201709   -1.452226
C      -1.541497   -2.035054    0.227128
O      -1.823737   -2.140533    1.625942
C      -2.389570   -0.970972    2.061194
O      -2.803804   -0.808142    3.174273
N      -2.393918   -0.082307    1.006949
H       1.093077    1.855019    0.222234
H      -0.286829    2.007385   -0.864524
H      -0.525780    2.012906    0.891167
H       0.532441   -0.382381   -0.738172
H       0.336607   -0.362373    1.008484
H      -1.506359   -0.641983   -2.248744
H      -3.130089   -0.601830   -1.525823
H      -2.165426    0.876161   -1.630837
H      -2.333062   -2.543290   -0.336004
H      -0.585494   -2.523839    0.026482
H      -2.527521    0.890872    1.229672
