19

C      -0.084306    1.549442    0.024733
C      -0.013919    0.044169    0.022857
C       0.922428   -0.817241   -0.890548
N       0.707430   -1.939828    0.106275
C       0.644858   -0.832746    1.140943
C      -0.752477   -2.189621   -0.095097
C      -1.278318   -0.757712   -0.156031
N      -2.439006   -0.274817   -0.310939
O      -3.394763   -1.307479   -0.449401
H       0.907091    1.991973    0.163496
H      -0.498918    1.918701   -0.918457
H      -0.737362    1.905374    0.827661
H       0.611458   -1.036494   -1.915893
H       1.964236   -0.487870   -0.869089
H       1.653566   -0.505230    1.404668
H       0.070689   -1.066701    2.041888
H      -0.930944   -2.747631   -1.018338
H      -1.170914   -2.761015    0.737982
H      -4.213343   -0.811829   -0.557466
