18

N       0.242452    0.826102   -0.351973
C      -0.407490    0.104891    0.598799
O      -0.056900    0.044166    1.759643
C      -1.611903   -0.732629    0.095879
C      -2.254684   -0.192077   -1.098661
C      -2.751324    0.254919   -2.099384
C      -1.163377   -2.180798   -0.116556
C      -0.893283   -3.052746    1.078722
C      -2.101152   -3.313408    0.212911
H       1.001415    1.417992   -0.056065
H      -0.177753    0.978713   -1.253753
H      -2.321753   -0.714485    0.930471
H      -3.216117    0.644167   -2.971564
H      -0.520589   -2.311606   -0.981615
H      -0.059166   -3.743057    1.024909
H      -1.041448   -2.610783    2.056806
H      -3.078371   -3.060959    0.611523
H      -2.099348   -4.182332   -0.435533
