25

C       2.292922    0.631694   -1.481126
C       1.983259   -0.687559   -0.767233
C       1.939809   -0.587718    0.771779
C       0.868304    0.381638    1.322936
C      -0.586328    0.061279    0.954025
C       1.782461   -1.977428    1.358064
O       2.925324   -2.843695    1.307588
C       2.423658   -2.461132    2.594159
C       3.331278   -1.649351    3.483282
H       3.232873    1.065387   -1.121082
H       2.392665    0.476075   -2.559849
H       1.505394    1.376898   -1.330066
H       1.033851   -1.093545   -1.139517
H       2.749207   -1.427729   -1.025236
H       2.915704   -0.204174    1.092740
H       0.960534    0.407225    2.415976
H       1.106680    1.395170    0.980936
H      -1.262490    0.801168    1.393644
H      -0.747274    0.075254   -0.128539
H      -0.896534   -0.921712    1.321937
H       0.858412   -2.483320    1.066870
H       1.913065   -3.275888    3.113991
H       3.810093   -0.830300    2.943774
H       2.766529   -1.232700    4.324592
H       4.119892   -2.287734    3.895604
