20

O       0.133028    0.076981    0.176715
C       0.024699    1.248416   -0.040652
C      -1.162341    2.229072   -0.006061
C      -0.234493    3.297399   -0.667423
C      -0.131533    4.633399    0.052992
N       0.928797    5.453536   -0.519832
C       0.543263    6.339127   -1.614815
C       0.851493    6.886710   -0.264876
C       0.989824    2.338437   -0.529434
H      -2.050215    1.911549   -0.559095
H      -1.465757    2.476000    1.018132
H      -0.496055    3.463133   -1.716239
H      -1.112713    5.144739    0.029964
H       0.113418    4.461738    1.109957
H       1.258834    6.431614   -2.426582
H      -0.501290    6.344111   -1.924099
H       0.012566    7.256090    0.323369
H       1.797086    7.385206   -0.072124
H       1.704774    2.649222    0.240029
H       1.551779    2.096281   -1.434935
