18

C       0.073356    1.414696    0.079747
O      -0.010247    0.007418    0.008916
C       0.623514   -0.527726   -1.120470
C       0.545193   -2.059783   -1.024854
C       1.088138   -2.727823   -2.310731
C       0.942906   -4.239341   -2.312333
O       0.466412   -4.861109   -3.225203
C       1.266128   -2.534027    0.162141
N       1.860877   -2.925526    1.072248
H       1.118232    1.755485    0.131795
H      -0.406624    1.893968   -0.787260
H      -0.446721    1.722294    0.988935
H       0.125862   -0.203944   -2.049764
H       1.677647   -0.209734   -1.178173
H      -0.512214   -2.321534   -0.897202
H       0.567738   -2.333837   -3.187371
H       2.156950   -2.493963   -2.409738
H       1.322038   -4.747975   -1.399648
