16

O      -0.077064    1.458913    0.010697
C       0.032507    0.044773    0.001906
C      -1.379193   -0.528144    0.012317
C      -1.395701   -2.057869    0.004104
C      -2.833266   -2.614440    0.014897
C      -2.871730   -4.075282    0.007565
N      -2.882662   -5.230799    0.001304
H       0.809457    1.831459    0.004262
H       0.571181   -0.309969   -0.892190
H       0.588208   -0.319677    0.881561
H      -1.901078   -0.147240    0.898873
H      -1.917967   -0.137622   -0.859833
H      -0.874124   -2.439328   -0.881180
H      -0.857289   -2.448917    0.875005
H      -3.371502   -2.257508    0.900903
H      -3.388347   -2.248104   -0.856791
