16

C       0.052417    1.396404    0.012036
N       0.002821   -0.054715    0.106093
C      -1.241959   -0.656535    0.034661
C      -2.520120   -0.111601    0.024821
C      -3.435594   -1.188820    0.020363
C      -2.711563   -2.365836    0.019915
N      -1.361823   -2.015715    0.026581
C      -3.125160   -3.709125    0.002554
N      -3.447704   -4.824692   -0.009255
H       1.092773    1.719031    0.087497
H      -0.374082    1.790355   -0.922748
H      -0.498859    1.833587    0.849718
H       0.705605   -0.511552   -0.459514
H      -2.759499    0.938686    0.007369
H      -4.512036   -1.125057   -0.000582
H      -0.604235   -2.669815    0.126283
