19

C      -0.141278    1.634303   -0.093132
C      -0.000003    0.123309   -0.059222
C       0.788466   -0.511892   -1.233725
C       1.852259   -0.832822   -0.170234
O       1.020752   -0.307228    0.891710
C      -1.321288   -0.613895    0.271289
O      -1.073954   -2.001237    0.430241
C      -1.995394   -0.056203    1.450646
C      -2.539401    0.378493    2.430446
H       0.812434    2.098650   -0.358934
H      -0.888250    1.933627   -0.837263
H      -0.455816    2.012959    0.881888
H       0.308642   -1.389185   -1.666755
H       1.086839    0.181564   -2.021200
H       2.080626   -1.893634   -0.021236
H       2.791339   -0.273677   -0.255781
H      -1.983616   -0.522291   -0.598910
H      -0.393493   -2.052695    1.115994
H      -3.026246    0.759006    3.294402
