16

C      -0.012630    1.447742    0.144309
N       0.017422    0.034470   -0.197453
C      -1.151506   -0.704329   -0.089634
C      -1.305028   -2.066517   -0.012055
N      -2.667546   -2.311086    0.016511
C      -3.262554   -3.573572    0.095857
O      -4.440671   -3.785832    0.125950
N      -3.393882   -1.168837   -0.034904
C      -2.495824   -0.205501   -0.097322
H       0.995579    1.855389    0.043823
H      -0.656038    1.989800   -0.556244
H      -0.372037    1.649852    1.165333
H       0.831314   -0.445806    0.155767
H      -0.588574   -2.871029    0.020640
H      -2.484102   -4.359048    0.127349
H      -2.820461    0.823644   -0.146173
