14

O       0.065217    0.077908    0.107712
C       0.018315    1.272468    0.097487
C      -1.081321    2.288600    0.078257
C      -0.467788    3.601231    0.589177
C      -0.177398    3.174225   -0.808073
C       1.054299    2.381010   -0.211297
C       0.965404    3.289071    1.063894
C       1.838782    4.453254    1.010218
N       2.532912    5.376673    0.967903
H      -2.151806    2.150573    0.018732
H      -1.108945    4.401050    0.934612
H      -0.383846    3.582639   -1.784052
H       2.004431    2.165405   -0.688930
H       1.088010    2.780722    2.026782
