18

C      -0.519060    1.388696    0.152703
C       0.428992    0.216980   -0.160660
C       1.039534   -0.363005    1.029380
C       1.531971   -0.837176    2.019012
C       2.141640   -1.387839    3.224903
O       1.565431   -2.641892    3.522421
C       1.937708   -3.147224    4.795303
C       3.617940   -1.499048    3.059903
N       4.764857   -1.601236    2.967884
H       0.015331    2.197498    0.658036
H      -0.948612    1.784417   -0.771894
H      -1.336495    1.064709    0.802179
H      -0.116540   -0.569587   -0.696873
H       1.222453    0.551344   -0.840691
H       1.977237   -0.690767    4.066229
H       3.017638   -3.334896    4.859272
H       1.648192   -2.455485    5.600357
H       1.401303   -4.088872    4.921399
