19

C      -0.167605    1.458967   -0.001087
N       0.089600    0.028830   -0.006475
C       0.830396   -0.491459   -1.177324
C       1.875104   -1.418310   -0.512849
C       1.073586   -1.948390    0.696907
C       0.773495   -0.528729    1.187694
C       2.183837    0.100812    1.211079
O       2.598801    1.040071    1.850892
N       2.848164   -0.573976    0.194034
H       0.743647    2.081090   -0.010742
H      -0.771303    1.719101   -0.876355
H      -0.742440    1.721857    0.892243
H       0.165061   -1.031721   -1.862736
H       1.328937    0.307191   -1.744121
H       2.351141   -2.149864   -1.164905
H       0.170949   -2.494672    0.418390
H       1.690195   -2.533100    1.380900
H       0.193794   -0.385933    2.097743
H       3.591449   -0.097302   -0.297637
