13

C       0.039221    1.533049    0.185919
C      -0.077856    0.056049    0.034817
C      -1.140672   -0.610454   -0.403566
O      -1.179960   -1.980856   -0.518429
C      -0.097063   -2.727453   -0.174748
O      -0.116550   -3.914974   -0.267731
C       1.145526   -1.973525    0.335546
O       2.139182   -2.544866    0.658284
O       1.071584   -0.614351    0.406884
H       0.859697    1.919501   -0.427975
H      -0.887258    2.024017   -0.117587
H       0.253511    1.798339    1.226627
H      -2.065039   -0.144685   -0.708073
