19

C      -0.035822    1.404313    0.124537
O      -0.101409   -0.000078    0.199961
C       0.507891   -0.624307   -0.883105
C       0.412697   -2.136291   -0.759314
N      -0.153059   -2.703296    0.216164
N       1.035244   -2.762612   -1.868017
C       1.145996   -4.120814   -2.100418
C       1.874327   -4.467075   -3.389034
O       0.702791   -4.963808   -1.346573
H       1.004845    1.766506    0.112557
H      -0.544324    1.791269   -0.773242
H      -0.536837    1.796842    1.011747
H       0.039748   -0.318591   -1.839656
H       1.576885   -0.343495   -0.960582
H      -0.108182   -3.717423    0.108851
H       1.441175   -2.153702   -2.562946
H       2.892355   -4.063417   -3.383742
H       1.917399   -5.551326   -3.482767
H       1.352530   -4.049555   -4.256686
