20

C      -0.008968    1.522446   -0.038282
C       0.084816    0.006686   -0.139875
O       1.108852   -0.550796   -0.490184
N      -1.063188   -0.666967    0.184854
C      -1.160246   -2.100422    0.135002
C      -1.842891   -2.892815    1.296200
C      -3.220272   -2.392376    0.762540
C      -2.406319   -2.792189   -0.506348
C      -1.974055   -4.063395    0.279701
H       0.798966    1.880262    0.604693
H       0.151333    1.951452   -1.031375
H      -0.963911    1.883667    0.352986
H      -1.865805   -0.129191    0.463952
H      -0.188139   -2.470484   -0.189477
H      -1.515515   -2.951806    2.335061
H      -4.085086   -3.018538    0.997876
H      -3.476636   -1.338224    0.901605
H      -2.728880   -2.735115   -1.546829
H      -1.048067   -4.550266   -0.036923
H      -2.763529   -4.789087    0.485951
