16

C      -0.106275    1.506626    0.088972
C       0.082207   -0.018366   -0.003114
C       0.764782   -0.413016   -1.232678
C       1.308866   -0.701122   -2.263645
N       0.798119   -0.524176    1.173109
C       2.063681   -0.969211    1.318921
N       2.299568   -1.278529    2.581889
C       1.112895   -0.992269    3.181075
N       0.169794   -0.531658    2.374534
H       0.861632    2.012683    0.054948
H      -0.715327    1.855365   -0.748323
H      -0.607175    1.749658    1.027951
H      -0.904223   -0.495064    0.024981
H       1.784725   -0.968041   -3.175439
H       2.750450   -1.055499    0.492427
H       0.934483   -1.130435    4.237160
