16

C       0.017511    1.508697    0.059322
C      -0.042107    0.007751    0.181638
N      -0.107000   -0.565227    1.308614
N      -0.016158   -0.639474   -1.084724
C      -0.054714   -1.984734   -1.329678
O      -0.119703   -2.844948   -0.467245
C      -0.010785   -2.391188   -2.805688
O      -0.056259   -3.778730   -2.925430
H       0.935846    1.827211   -0.447967
H      -0.831004    1.891695   -0.519842
H      -0.007155    1.942842    1.057541
H      -0.139745   -1.579490    1.202695
H       0.037983   -0.038186   -1.893901
H      -0.859654   -1.917728   -3.326291
H       0.908644   -1.981630   -3.255967
H      -0.103998   -4.109342   -2.013020
