21

C       0.087585    1.534765    0.069811
C       0.039165    0.009403    0.239914
C      -1.330537   -0.537228   -0.020503
O      -2.375065   -0.119879    0.863211
C      -2.969587   -1.440940    0.826872
C      -1.935946   -1.942833   -0.175368
C      -1.886163   -0.968324   -1.337412
O      -3.021165   -0.370902   -1.865356
C      -3.729477   -1.220712   -2.746332
H       1.084709    1.921242    0.300104
H      -0.163349    1.823895   -0.955541
H      -0.630125    2.017099    0.738994
H       0.746830   -0.473890   -0.443827
H       0.341451   -0.261721    1.258717
H      -2.897383   -1.921584    1.808449
H      -4.014698   -1.412280    0.500063
H      -1.479366   -2.924461   -0.185663
H      -1.120970   -1.225384   -2.075388
H      -3.124506   -1.486942   -3.626683
H      -4.043103   -2.149966   -2.249407
H      -4.614898   -0.674015   -3.078557
