20

C       0.246141    1.646629    0.004176
C       0.088760    0.126751   -0.022823
C       0.727312   -0.594803   -1.192906
N       2.203427   -0.575843   -1.118013
C       1.468318   -1.792808   -0.713667
C       1.349775   -1.911973    0.792730
C       2.639265   -2.222418    1.551915
C       0.733881   -0.557222    1.200766
O       0.752711   -0.100247    2.313999
H       1.295275    1.915558   -0.145955
H      -0.350498    2.121928   -0.780171
H      -0.073424    2.036944    0.973757
H      -0.980618   -0.133773    0.011285
H       0.249978   -0.579505   -2.167446
H       2.600735   -0.700910   -2.044986
H       1.552648   -2.685570   -1.324954
H       0.590963   -2.674603    1.027695
H       3.431833   -1.538690    1.235852
H       2.480177   -2.091553    2.625283
H       2.971344   -3.248607    1.368209
