15

O      -0.004854    0.084251    0.056288
C       0.064333    1.273072    0.037325
O      -1.027009    2.117424    0.060226
C      -0.404059    3.435742    0.012645
C       0.671111    3.248618   -1.084531
C       1.247052    2.238969   -0.022925
C       0.744429    3.276046    1.013795
C       1.457931    4.228083    1.852012
O       0.671406    3.144057    2.399020
H      -1.166395    4.209394    0.031873
H       0.325934    2.833480   -2.031997
H       1.308970    4.120637   -1.234244
H       2.243922    1.810641   -0.046717
H       2.533627    4.132472    1.987490
H       1.049714    5.223055    2.021135
