17

C      -0.056605    1.521718    0.074236
C      -0.001210    0.034134   -0.007491
C      -0.028038   -0.800040   -1.103173
N      -0.156571   -0.413837   -2.451035
C       0.032982   -2.156362   -0.624712
C       0.096324   -2.091725    0.758446
N       0.088169   -0.778086    1.112096
C       0.028465   -3.307464   -1.440616
C       0.028405   -4.255634   -2.187021
H       0.927422    1.986374    0.226169
H      -0.469767    1.920459   -0.856758
H      -0.705290    1.860035    0.891275
H       0.558140    0.242209   -2.742196
H      -0.114517   -1.224053   -3.058800
H       0.147939   -2.880773    1.489875
H       0.118395   -0.438469    2.057288
H       0.021400   -5.103570   -2.825099
