18

C      -0.133605    1.558199   -0.105086
C      -0.017764    0.060818    0.050884
N       1.305297   -0.543414   -0.167151
C       0.693028   -0.624302    1.168652
C       1.409437    0.103563    2.257608
N       0.803911    0.057794    3.588562
C       2.095723   -0.625513    3.377354
C       2.084172   -2.066197    3.462634
N       2.096896   -3.221267    3.512244
H       0.768393    2.068418    0.240602
H      -0.275188    1.820716   -1.158719
H      -0.991225    1.943552    0.456594
H      -0.875274   -0.490670   -0.333890
H       1.234286   -1.435451   -0.647693
H       0.278768   -1.578191    1.487626
H       1.910042    1.017471    1.948482
H       0.955036    0.924189    4.097965
H       2.997852   -0.171937    3.778658
