25

C       0.145351    0.866082   -1.545983
C      -0.173776    0.560277   -0.078501
C      -1.454595   -0.256475    0.081164
C      -1.470784   -1.712962   -0.409743
C      -0.564208   -2.574797    0.430400
C      -1.920606   -2.209429    0.968410
C      -2.955498   -3.235454    1.335546
C      -1.911509   -0.764464    1.506650
C      -1.086996   -0.445586    2.750123
H       1.061031    1.457915   -1.641936
H       0.283424   -0.056871   -2.119392
H      -0.667275    1.430066   -2.018190
H       0.673546    0.031185    0.372884
H      -0.275002    1.501307    0.478223
H      -2.277690    0.302275   -0.378664
H      -1.813061   -2.041439   -1.385002
H      -0.471277   -3.603455    0.094687
H       0.351024   -2.177912    0.861651
H      -2.899866   -4.110035    0.678428
H      -2.820654   -3.591369    2.364762
H      -3.969546   -2.824921    1.259763
H      -2.943209   -0.438650    1.680811
H      -0.048013   -0.775475    2.657066
H      -1.075881    0.630686    2.954605
H      -1.511129   -0.942237    3.630125
