15

O       0.177895    0.012163    0.042614
C       0.081818    1.201963   -0.016129
N      -1.045898    2.053639   -0.060108
C      -0.209171    3.259662   -0.040678
C      -0.565128    4.438801   -0.909673
C      -1.709525    5.184587   -0.377445
N      -2.615341    5.753540    0.058544
C       0.694869    3.277583    1.150328
C       1.035189    2.390050   -0.055516
H      -1.858043    1.927395    0.535328
H       0.290176    5.118286   -0.987638
H      -0.809033    4.094260   -1.920491
H       1.339294    4.145237    1.264042
H       0.375890    2.825813    2.084520
H       1.952942    2.494235   -0.616749
