18

O      -0.319301    1.496693   -0.335996
C      -0.026347    0.138098   -0.026338
C      -1.393523   -0.546019    0.107131
O      -1.317546   -1.831931    0.681364
C      -0.924065   -2.867961   -0.198414
C       0.584632   -2.932291   -0.461006
C       1.158641   -1.772471   -1.239838
C       0.887192   -0.479642   -1.063683
H       0.509242    1.984735   -0.359083
H       0.457916    0.065141    0.963537
H      -2.005854    0.061810    0.779629
H      -1.884908   -0.576037   -0.877153
H      -1.242513   -3.798711    0.283622
H      -1.463668   -2.778566   -1.154593
H       1.096722   -3.023679    0.507930
H       0.788023   -3.865064   -1.000152
H       1.879273   -2.032692   -2.011872
H       1.385318    0.245903   -1.705315
