16

O      -0.014386    0.046446   -0.210397
C      -0.031933    1.225191   -0.020169
C      -1.099207    2.270286    0.363765
N      -0.007114    3.289593    0.476983
C       0.992247    2.330585   -0.019091
C       2.438202    2.257251    0.356363
C       2.067935    2.599065   -1.075584
C       2.291913    1.681760   -2.151281
C       2.482777    0.917931   -3.060142
H      -1.831420    2.448870   -0.432358
H      -1.627735    2.083951    1.303488
H      -0.146808    4.074068   -0.151301
H       2.827383    3.060155    0.972601
H       2.846544    1.270277    0.544004
H       2.162657    3.651636   -1.334743
H       2.645448    0.233806   -3.855595
