16

O      -0.399318    0.497169    0.699912
C       0.065000    1.186443   -0.173666
C       1.354004    1.935768   -0.039265
O       1.528202    2.986998   -1.014940
C       2.787995    2.420207   -1.474735
C       2.737569    1.334573   -0.389996
N       3.278055    1.603420    0.996240
C       3.111703    3.035418    1.326022
C       1.913350    2.189987    1.371043
H      -0.422598    1.304160   -1.165617
H       2.693462    2.028503   -2.494339
H       3.614168    3.137675   -1.436803
H       2.895687    0.294983   -0.669078
H       3.580013    3.278448    2.274468
H       3.201541    3.804247    0.566564
H       1.396471    1.888665    2.274685
