14

O       0.226957    1.283366   -0.205004
C       0.094348   -0.062874    0.098200
C      -0.028911   -0.330232    1.601667
O      -1.292043   -1.019430    1.436510
C      -1.366339   -0.706951    0.027543
C      -2.435042    0.214801   -0.317984
C      -3.299333    0.995998   -0.608700
C      -1.433648   -1.928535   -0.787310
N      -1.427007   -2.881280   -1.441175
H       0.289823    1.391864   -1.160083
H       0.823810   -0.693930   -0.420266
H       0.730146   -0.975108    2.052344
H      -0.140292    0.591332    2.182059
H      -4.073454    1.679626   -0.859313
