11

O      -0.144965    0.101231    0.001631
C       0.004639    1.288109    0.006349
C       1.408407    1.915783   -0.001833
O       2.445500    1.317489   -0.013119
O       1.287053    3.262388    0.005374
C       2.536730    3.968197   -0.001357
C       2.250151    5.399649    0.009278
N       2.058494    6.537707    0.017424
H      -0.827990    2.017498    0.016497
H       3.129967    3.689541    0.875523
H       3.114708    3.699681   -0.891499
