14

F       0.116480    0.099280   -0.150114
C       0.017865    1.423094    0.000545
F       1.263974    1.929002   -0.018368
F      -0.626372    1.901982   -1.079953
C      -0.700315    1.820969    1.270933
C      -2.017700    1.066757    1.669335
C      -1.344408    0.723905    3.008639
O      -0.173694   -0.037058    2.705411
C      -0.088234    1.384413    2.614748
H      -0.851586    2.902134    1.235691
H      -2.872249    1.739942    1.752885
H      -2.281503    0.200463    1.060739
H      -1.791843    0.585279    3.984968
H       0.678860    1.881681    3.195359
