17

C       1.009053    0.071770   -0.818102
C       0.263869   -0.418831    0.403068
C       0.865559   -1.416301    1.301864
O       0.836388   -0.027953    1.661039
C      -1.240424   -0.298981    0.305596
O      -2.070688   -1.368797    0.757522
C      -2.132221   -0.149604    1.478517
C      -1.647907   -0.154271    2.904601
O      -1.371174   -1.146946    3.524828
H       2.086641   -0.006740   -0.660700
H       0.738702   -0.517274   -1.701034
H       0.769212    1.120529   -1.025873
H       0.217631   -2.057019    1.893469
H       1.853561   -1.808856    1.065664
H      -1.585762    0.153427   -0.625289
H      -3.041489    0.442139    1.335917
H      -1.629176    0.856295    3.367037
