20

C      -0.964625    1.022519    0.414749
N      -0.059741   -0.039992    0.007735
C       1.126646   -0.252457    0.817161
C      -0.442864   -0.859075   -1.033269
O      -1.433803   -0.644212   -1.713200
N       0.400189   -1.944935   -1.241993
C       0.339225   -2.928721   -2.234248
C      -0.690883   -2.794454   -3.324746
N       1.200326   -3.864885   -2.115087
H      -0.449415    1.990427    0.410870
H      -1.792017    1.052782   -0.291490
H      -1.357744    0.844790    1.424481
H       1.014536   -1.074781    1.539216
H       2.008172   -0.444923    0.196916
H       1.328456    0.658511    1.384704
H       1.128775   -2.147015   -0.575149
H      -1.701230   -2.812295   -2.912295
H      -0.595415   -1.836858   -3.841393
H      -0.563650   -3.612659   -4.037069
H       1.102449   -4.533608   -2.876082
