17

C      -0.083273    1.514434    0.037080
C      -0.027854    0.060790    0.013166
C       0.029837   -1.141370   -0.011262
C       0.052718   -2.608365   -0.048837
O      -1.263917   -3.151931   -0.147056
C       0.780434   -3.131904   -1.321943
O       2.139094   -2.783916   -1.358737
C       0.755228   -3.130819    1.140658
C       1.349645   -3.594098    2.077893
H       0.743778    1.946578   -0.536442
H      -1.018226    1.882029   -0.399532
H      -0.017483    1.899006    1.060559
H      -1.800247   -2.737516    0.537872
H       0.613717   -4.217793   -1.355897
H       0.301676   -2.675262   -2.190875
H       2.559136   -3.173642   -0.582587
H       1.856116   -3.990432    2.923675
