17

C       0.018929    1.541479   -0.020158
C       0.061234    0.012104   -0.027792
C       0.626343   -0.570142    1.280260
C       0.721034   -2.061167    1.257764
N      -0.005270   -2.839306    2.048934
N       0.391916   -4.081813    1.677438
C       1.317778   -4.002944    0.702633
N       1.553724   -2.741611    0.407653
H       1.021106    1.964493    0.112116
H      -0.385455    1.931661   -0.959283
H      -0.608811    1.918802    0.794992
H      -0.947025   -0.388298   -0.189860
H       0.674044   -0.344180   -0.863119
H       1.627372   -0.155317    1.452256
H       0.000891   -0.276274    2.128900
H      -0.001051   -4.891067    2.128604
H       1.780102   -4.868890    0.252505
