21

C      -0.196217    1.491908    0.024583
C       0.041984   -0.019814   -0.081967
C       0.753594   -0.373807   -1.394109
C       0.787185   -0.565766    1.167239
O      -0.057358   -0.242538    2.295076
C       0.919706   -2.111351    1.157214
O      -0.348361   -2.722162    1.126047
C       2.113780    0.031772    1.334833
C       3.217326    0.476007    1.513182
H       0.750342    2.041848   -0.013883
H      -0.816353    1.834373   -0.809628
H      -0.701122    1.745922    0.958158
H      -0.927102   -0.530419   -0.067532
H       1.774811    0.022107   -1.410378
H       0.799990   -1.452625   -1.564555
H       0.213382    0.065986   -2.237984
H       0.495798   -0.243724    3.084100
H       1.477103   -2.453560    0.282515
H       1.493285   -2.403923    2.051924
H      -0.863534   -2.276610    1.811852
H       4.187856    0.883125    1.658704
