17

C       0.131645    1.526766    0.175267
C      -0.000003    0.019042   -0.108448
C       0.754690   -0.823131    0.953623
C      -1.468944   -0.419262   -0.063996
O      -2.376032    0.291511    0.275767
C       0.527830   -0.300861   -1.504397
O      -0.165019   -0.724383   -2.402576
C       2.012696   -0.066510   -1.853651
O       2.849632    0.362246   -1.105204
H       1.180757    1.824075    0.204957
H      -0.388893    2.117666   -0.583175
H      -0.333995    1.751690    1.137568
H       0.355019   -0.597589    1.946866
H       0.633496   -1.896868    0.775330
H       1.818966   -0.585867    0.945088
H      -1.635251   -1.483643   -0.333592
H       2.219647   -0.342920   -2.909352
