15

N       0.157742    1.294934    0.530115
C      -0.056915   -0.027995   -0.005623
C      -1.524730   -0.427804   -0.168852
O      -2.224768    0.707761   -0.656216
C      -1.448640   -1.475158   -1.268215
N      -2.325132   -2.341164   -1.513030
O      -0.300533   -1.273181   -2.014479
C       0.501665   -0.311814   -1.408261
O       1.461327    0.141577   -1.944535
H       1.123590    1.567035    0.371296
H      -0.427595    1.952869    0.024564
H       0.420136   -0.771686    0.650103
H      -1.981436   -0.830632    0.739335
H      -3.117286    0.426883   -0.886739
H      -2.086393   -2.893448   -2.338978
