18

N      -0.169508    1.263830   -0.183640
C      -0.011599    0.006855   -0.066166
C       1.212418   -0.909564   -0.087784
N       0.714619   -2.277840    0.104814
C      -0.553723   -2.158947    0.214920
N      -1.074092   -0.876257    0.129953
C      -2.442582   -0.456212    0.217761
C      -3.559852   -1.287142   -0.352343
C      -3.415265   -1.129597    1.147360
H       0.725754    1.729536   -0.319431
H       1.751590   -0.828636   -1.038799
H       1.920296   -0.644429    0.706132
H      -1.224117   -2.997811    0.368356
H      -2.493196    0.619809    0.109583
H      -4.369231   -0.773116   -0.858447
H      -3.307859   -2.250306   -0.783354
H      -3.067335   -1.988184    1.711919
H      -4.124451   -0.506398    1.680402
