17

C       0.161279    1.268178    0.421597
N       0.114900   -0.152286    0.147689
C      -1.111291   -0.894707    0.108626
C      -1.426900   -1.570029   -1.195492
C      -0.618007   -2.334311   -0.161812
N       0.807499   -2.275450   -0.246635
C       1.139345   -1.025418   -0.110377
C       2.576455   -0.671225   -0.210688
O       3.047067    0.439497   -0.129226
H       1.199355    1.586898    0.485752
H      -0.337078    1.840861   -0.371196
H      -0.346822    1.488035    1.369358
H      -1.883375   -0.595321    0.810193
H      -2.446934   -1.911375   -1.329216
H      -0.927152   -1.228301   -2.095857
H      -1.047108   -3.227022    0.277542
H       3.197711   -1.572794   -0.372187
