19

C       0.096174    1.335168    0.110317
O      -0.179744   -0.024614   -0.127988
C       0.559289   -0.579533   -1.194809
C       2.067346   -0.802041   -0.902855
C       2.478640   -2.002159   -1.787262
C       1.200146   -2.815670   -1.914452
N       0.526281   -3.012057   -0.614290
C       0.046659   -1.962536   -1.541336
H       1.129783    1.501145    0.448522
H      -0.072608    1.949140   -0.789789
H      -0.584719    1.671198    0.896459
H       0.442248    0.060225   -2.088778
H       2.674390    0.085587   -1.094819
H       2.162387   -1.062670    0.153664
H       2.791943   -1.668548   -2.783831
H       3.306284   -2.573943   -1.355530
H       1.116359   -3.586807   -2.673803
H      -0.099748   -3.810756   -0.678410
H      -0.931158   -2.068243   -1.998952
