16

C      -0.107317    1.449410    0.254991
O      -0.128523    0.178432   -0.379878
C      -1.322080   -0.511421   -0.184550
C      -1.343813   -1.953765   -0.739272
C      -0.054018   -2.511483   -1.293983
O      -1.630994   -2.460086    0.619006
C      -1.526450   -1.214356    1.176791
O      -1.577185   -0.918209    2.328053
H       0.862336    1.896836    0.029216
H      -0.904626    2.099326   -0.135676
H      -0.225608    1.357298    1.340904
H      -2.196648    0.092556   -0.471309
H      -2.199064   -2.173148   -1.383229
H       0.787800   -2.268096   -0.642961
H      -0.127696   -3.597675   -1.395184
H       0.141455   -2.082098   -2.281181
