20

C       0.407313    1.514687   -0.351962
C       0.264361    0.029660   -0.063117
O       0.580038   -0.686031   -1.241432
C       0.447255   -2.094007   -1.131385
C       0.527767   -2.676463   -2.546925
C       2.039549   -2.808904   -2.734694
O       2.530115   -3.234754   -1.467214
C       1.664777   -2.752931   -0.441466
H       1.432664    1.749627   -0.651218
H      -0.262687    1.813649   -1.162989
H       0.161774    2.101770    0.538014
H       0.929497   -0.261751    0.765805
H      -0.765541   -0.207429    0.254380
H      -0.494177   -2.339035   -0.619348
H       0.053575   -3.662373   -2.573365
H       0.042008   -2.023584   -3.273949
H       2.331443   -3.557241   -3.477121
H       2.479130   -1.841436   -3.019870
H       2.191940   -2.024773    0.188686
H       1.366748   -3.599819    0.189972
