15

C      -0.012948    1.559649   -0.074653
C       1.469799    1.852599    0.059034
C       2.295638    0.716496   -0.516801
C       2.133698    0.848372    0.983721
C       1.170684   -0.366348    0.986239
C       0.039267    0.049552    0.063610
C       1.331852   -0.497611   -0.514421
H      -0.604630    2.031045    0.718524
H      -0.415077    1.876295   -1.043908
H       1.859848    2.862607    0.012240
H       3.174720    0.846531   -1.132561
H       2.864677    1.099049    1.739820
H       1.094976   -1.133420    1.744344
H      -0.855704   -0.560077    0.020939
H       1.403416   -1.384663   -1.128320
