12

O      -0.141898   -0.003619    0.001416
C      -0.030199    1.195023    0.008379
C       1.248896    1.932374    0.000918
C       1.382133    3.263836    0.009542
C       2.835117    3.614774   -0.002327
O       3.519615    2.370137   -0.018534
C       2.617442    1.323675   -0.017355
O       2.962492    0.183245   -0.029388
H      -0.920961    1.863374    0.021495
H       0.588206    4.001043    0.022991
H       3.115247    4.201358   -0.887350
H       3.132950    4.188018    0.885652
