19

C       0.027158    1.514843   -0.041361
C       0.043360    0.008479   -0.036508
C       0.446576   -0.772163   -1.277636
O       0.321157   -2.136238   -0.832063
C      -0.104708   -2.004900    0.504511
C      -0.308447   -3.319678    1.195029
C       0.608476   -0.790869    1.187360
O      -0.590839   -0.503634    1.980162
C      -1.106898   -0.811053    0.642779
H       1.019842    1.923188   -0.260943
H      -0.665927    1.903323   -0.795748
H      -0.288318    1.880686    0.939439
H      -0.218485   -0.595662   -2.132459
H       1.478946   -0.575684   -1.593538
H       0.622107   -3.894861    1.211808
H      -0.636326   -3.137704    2.220948
H      -1.065710   -3.914765    0.675922
H       1.580118   -0.716908    1.678584
H      -2.185277   -0.761196    0.483183
