19

C       0.248845    1.482903    0.160593
C      -0.201051    0.050488   -0.148372
C       0.593506   -0.571139   -1.274873
C       1.931329   -1.246622   -1.024149
C       2.478007   -1.356947    0.294138
C       2.961796   -1.440483    1.392347
C       0.698160   -2.075546   -1.443980
C       0.068983   -2.978385   -0.528379
C      -0.469244   -3.751905    0.219004
H       1.293826    1.501009    0.484751
H       0.157736    2.128908   -0.719882
H      -0.359675    1.920054    0.957983
H      -0.109460   -0.570319    0.747367
H      -1.263173    0.041684   -0.423359
H       0.547060   -0.022351   -2.212692
H       2.674119   -1.134318   -1.808771
H       3.383816   -1.523494    2.362951
H       0.737600   -2.433636   -2.468898
H      -0.936695   -4.434100    0.884672
