23

C       0.027698    1.599141    0.083225
C       0.058899    0.064051    0.067080
C       0.777107   -0.467368    1.315611
C      -1.362455   -0.537857   -0.052845
C      -2.122977   -0.163431   -1.316180
C      -2.642974   -1.224759   -1.936983
C      -2.280679   -2.498317   -1.251102
C      -0.796641   -2.813524   -1.237585
C      -1.417549   -2.073418   -0.077189
H       1.038133    2.007043    0.192214
H      -0.396994    2.013785   -0.835427
H      -0.569757    1.970242    0.925094
H       0.630484   -0.255045   -0.814716
H       0.874605   -1.556340    1.290943
H       1.782751   -0.042124    1.399902
H       0.228054   -0.199111    2.226950
H      -1.927025   -0.179821    0.824202
H      -2.211116    0.859893   -1.661705
H      -3.231064   -1.193099   -2.847656
H      -2.993533   -3.313127   -1.187475
H      -0.502772   -3.842537   -1.056164
H      -0.163850   -2.279433   -1.938495
H      -1.482966   -2.600412    0.867014
