18

O      -0.185715    0.041576    0.388575
C      -0.157182    1.204598    0.103008
C      -1.213913    2.305376   -0.181454
C      -0.023643    3.282597   -0.039506
C       0.519610    3.783678    1.330150
C      -0.035263    3.124294    2.629244
C       1.111488    2.062801    2.601401
C       1.604068    2.647022    1.260474
N       0.922296    2.120567    0.020814
H      -1.667393    2.274073   -1.175132
H      -2.006982    2.353542    0.567295
H       0.132914    3.979819   -0.866605
H       0.769662    4.842806    1.390849
H       0.003931    3.789686    3.493771
H      -1.051043    2.727802    2.564284
H       1.841395    2.205924    3.401847
H       0.816703    1.012731    2.580261
H       2.671650    2.816628    1.114812
