21

C      -0.093163    1.518782   -0.255781
C       1.124799    1.691700    0.663126
C       2.189618    0.776338    0.028370
C       3.260234    0.193409    0.984869
C       2.787056   -1.211920    1.297561
O       1.431317   -1.274429    1.766133
C       1.697297   -1.585912    0.387392
C       1.371288   -0.436596   -0.546747
C      -0.118868    0.003812   -0.544827
H      -1.024886    1.881469    0.188369
H       0.060516    2.078030   -1.187710
H       1.457493    2.730899    0.749734
H       0.884670    1.329155    1.668131
H       2.672140    1.319179   -0.790389
H       4.242632    0.135571    0.501027
H       3.382336    0.797423    1.890672
H       3.461405   -1.938964    1.745388
H       1.493850   -2.616070    0.102343
H       1.708286   -0.698804   -1.555608
H      -0.648869   -0.512560    0.261849
H      -0.630166   -0.239555   -1.480061
