23

C       0.010115    1.557578   -0.024158
C       0.054545    0.021949   -0.020217
C       0.744565   -0.499527   -1.287473
C       0.721521   -0.510883    1.272519
C      -0.043962   -0.040375    2.497129
O       0.427812    0.561432    3.427353
C       0.779180   -2.034237    1.341868
C       2.029592   -2.783269    0.948898
C       1.625592   -2.706438    2.397414
H       1.023426    1.975811   -0.022830
H      -0.502403    1.928735   -0.917226
H      -0.510683    1.958745    0.851068
H      -0.982176   -0.347827   -0.025495
H       1.791241   -0.175359   -1.323670
H       0.730575   -1.590478   -1.343053
H       0.246730   -0.108455   -2.180821
H       1.737602   -0.105886    1.359423
H      -1.123168   -0.330993    2.492892
H      -0.163073   -2.524116    1.106843
H       1.917404   -3.729186    0.430196
H       2.886714   -2.200936    0.628371
H       2.204364   -2.065705    3.054414
H       1.239319   -3.599722    2.875111
