20

O      -0.137525   -0.015976    0.003355
C      -0.022988    1.182605    0.008191
C       1.284693    1.941579   -0.000100
C       1.374509    2.821341   -1.266442
C       2.644487    3.684496   -1.269228
C       2.749520    4.539892    0.000234
C       2.668320    3.670741    1.262079
C       1.398427    2.807537    1.273836
H      -0.925558    1.842345    0.019798
H       2.089522    1.197137   -0.011692
H       1.341784    2.188747   -2.160385
H       0.491131    3.474552   -1.311157
H       3.524094    3.030352   -1.339656
H       2.656892    4.320169   -2.161500
H       3.682904    5.113400   -0.005436
H       1.932147    5.274390    0.011920
H       3.549028    3.015958    1.308820
H       2.697588    4.296683    2.160814
H       0.516111    3.460128    1.342284
H       1.382482    2.165238    2.161289
