15

C      -0.156944    1.535705    0.018140
C       0.101952    0.040317    0.026546
O       1.212244   -0.444479    0.134395
N      -1.024147   -0.740883   -0.069809
C      -1.015924   -2.128908   -0.033726
C       0.004974   -3.018063    0.082579
O      -0.562167   -4.272177    0.061281
C      -1.880282   -4.053719   -0.065826
N      -2.221585   -2.805826   -0.128460
H       0.698943    2.034939   -0.437477
H      -1.069356    1.808544   -0.518971
H      -0.245814    1.893551    1.049509
H      -1.935053   -0.319068   -0.159232
H       1.069501   -2.944259    0.177691
H      -2.522618   -4.919088   -0.103476
