13

N       0.129784    1.407073    0.378613
C      -0.020628    0.058172    0.023846
C      -1.173749   -0.593228   -0.162973
O      -1.219654   -1.951867   -0.393988
C      -0.092108   -2.702736   -0.558718
O      -0.173385   -3.868071   -0.804143
C       1.259716   -1.993177   -0.376076
O       2.305749   -2.588482   -0.461859
N       1.173430   -0.652304   -0.078527
H       0.612594    1.949113   -0.332224
H      -0.758358    1.846959    0.582399
H      -2.152645   -0.140939   -0.144672
H       2.038974   -0.190589    0.168033
