19

O      -0.593516    1.143187    0.065656
C      -0.123242   -0.160857    0.070953
C      -0.387194   -1.011238    1.271707
C       1.046505   -0.669113    0.902230
C       1.825783   -1.682115    0.074000
C       0.891603   -2.046206   -1.113310
C      -0.024167   -0.843870   -1.267625
C      -0.995938   -0.637264   -2.340058
O       0.248311    0.087669   -2.337800
H      -0.199616    1.554439   -0.716817
H      -0.793732   -0.475883    2.122793
H      -0.760217   -2.025348    1.161651
H       1.581774    0.006166    1.559440
H       2.744138   -1.215401   -0.298740
H       2.121526   -2.569434    0.643799
H       1.435529   -2.244000   -2.039292
H       0.296795   -2.936924   -0.884980
H      -1.095113   -1.375660   -3.134341
H      -1.880396   -0.032339   -2.148675
