18

C       0.218173    1.242195    0.229208
O      -0.085113   -0.098684   -0.148857
C       0.645281   -0.571618   -1.241710
C       0.416150    0.113317   -2.568101
C       1.971227   -1.181655   -0.879610
O       2.442739   -1.117239    0.417302
C       0.782211   -2.100624   -1.234821
C       0.174816   -2.860569   -0.184959
N      -0.292550   -3.476507    0.676049
H       1.294457    1.381846    0.386709
H      -0.134421    1.963551   -0.518004
H      -0.312429    1.421519    1.166259
H       0.742324    1.157555   -2.542169
H       0.981167   -0.386504   -3.359714
H      -0.645567    0.086593   -2.833349
H       2.787915   -1.153223   -1.593064
H       1.679110   -1.072762    1.008001
H       0.799556   -2.591153   -2.202213
