19

C       0.022573    1.517811    0.084612
C       0.004381   -0.015854   -0.017389
O      -1.317748   -0.543527    0.046898
C      -1.869319   -0.597781    1.345767
C      -3.190697   -1.368090    1.239507
C      -3.865101   -1.480654    2.525411
C      -4.397742   -1.558040    3.599922
C       0.603263   -0.467634   -1.273624
C       1.118786   -0.809633   -2.302973
H       1.047466    1.888894    0.000117
H      -0.575274    1.950175   -0.721409
H      -0.383161    1.847249    1.044946
H       0.594845   -0.433134    0.815999
H      -1.187204   -1.114083    2.039350
H      -2.059570    0.405546    1.753338
H      -3.834738   -0.856968    0.514274
H      -2.984076   -2.362028    0.826157
H      -4.880625   -1.635060    4.542317
H       1.569300   -1.123698   -3.211988
