18

C       0.079884    1.459895   -0.327404
C       0.107873   -0.015440   -0.024886
O       1.392501   -0.623434    0.177362
C       0.484238   -0.556970    1.284717
C       0.887538    0.216141    2.527003
C       1.096823   -0.916288    3.544140
O       0.246817   -1.997377    3.110377
C      -0.055337   -1.869804    1.786801
N      -0.697315   -2.707160    1.095652
H       0.760180    2.017379    0.320919
H       0.375052    1.637609   -1.366469
H      -0.933411    1.854454   -0.196340
H      -0.568440   -0.637728   -0.611121
H       1.785348    0.814048    2.368199
H       0.075642    0.876750    2.848744
H       2.134689   -1.268466    3.552056
H       0.804709   -0.656738    4.563442
H      -0.934302   -3.532864    1.647568
