24

C      -0.054507    1.549240   -0.002155
C       0.079290    0.018928    0.007601
C       0.694954   -0.514286   -1.294852
N       0.785493   -0.477098    1.208865
C       2.084096   -0.137373    1.420028
O       2.772418   -0.479484    2.365428
C       0.074084   -1.342672    2.177943
C       0.699815   -2.742296    2.265406
C      -0.048884   -0.679681    3.557568
H       0.918070    2.038693   -0.112080
H      -0.682769    1.868014   -0.840111
H      -0.510587    1.905958    0.925427
H      -0.930607   -0.394651    0.082210
H       1.699781   -0.113495   -1.459813
H       0.764320   -1.605374   -1.274515
H       0.077426   -0.223992   -2.150922
H       2.485899    0.511108    0.618175
H      -0.935962   -1.453632    1.769862
H       1.711038   -2.684461    2.670303
H       0.093906   -3.379165    2.917980
H       0.744085   -3.212401    1.278077
H      -0.531247    0.299542    3.478516
H      -0.658146   -1.306167    4.217007
H       0.935947   -0.548676    4.007867
