20

C      -0.519649    1.302565   -0.219524
N      -0.116432   -0.096495   -0.103807
C       1.162900   -0.455287   -0.831954
C       1.997786    0.058864    0.372452
C       0.736105   -0.447319    1.109326
C       0.814911   -1.985552    0.906316
C       1.160462   -1.978868   -0.620984
C       0.290994    0.025434    2.453841
O       0.999030    0.591883    3.248755
H       0.267322    2.050652   -0.032322
H      -0.902263    1.465698   -1.232287
H      -1.341734    1.500263    0.475693
H       1.283118   -0.066707   -1.843932
H       2.956496   -0.418766    0.590779
H       2.107968    1.141432    0.407574
H       1.589769   -2.440299    1.527753
H      -0.142382   -2.464947    1.119178
H       0.393846   -2.469395   -1.222741
H       2.129646   -2.434877   -0.837692
H      -0.775586   -0.202151    2.685765
