18

C      -0.040193    1.436271   -0.075480
O      -0.037167    0.049383    0.176059
C      -1.287330   -0.601846   -0.002665
C      -1.697939   -0.723478   -1.469198
C      -1.133300   -1.984628    0.659490
O      -0.326052   -2.853510   -0.081566
C      -0.569912   -1.806597    2.059019
O       0.417513   -2.393598    2.424877
H       0.936916    1.817419    0.230907
H      -0.187847    1.672329   -1.138180
H      -0.820295    1.952892    0.505999
H      -2.066358   -0.050961    0.555760
H      -2.655362   -1.247381   -1.552983
H      -1.815881    0.259283   -1.932874
H      -0.941590   -1.291682   -2.014060
H      -2.147990   -2.409066    0.768910
H       0.432163   -3.052790    0.490082
H      -1.123887   -1.116603    2.727475
