19

O       0.087971    1.445440   -0.153551
C       0.044017    0.057723    0.078474
C       0.625707   -0.706177   -1.134731
N      -0.022705   -0.215870   -2.332232
C      -1.328361   -0.784443   -2.751376
C      -0.868652   -0.667284   -4.223882
C       0.564835   -0.529235   -3.655979
C       0.800218   -0.264352    1.297844
N       1.390057   -0.561395    2.245336
H      -0.027901    1.516804   -1.116501
H      -0.993213   -0.281544    0.243586
H       1.694733   -0.480006   -1.204766
H       0.512729   -1.793975   -0.988471
H      -1.452949   -1.830880   -2.431878
H      -2.205144   -0.211268   -2.436087
H      -1.065034   -1.519061   -4.874258
H      -1.221727    0.246702   -4.703840
H       1.214249    0.251534   -4.062893
H       1.108361   -1.485611   -3.664223
