17

C      -0.005630    1.397055   -0.033857
O      -0.155934    0.000868   -0.178921
C       0.693463   -0.582409   -1.155032
C       2.131588   -0.763073   -0.651460
C       0.073579   -1.894203   -1.530279
C      -0.467713   -2.365792   -2.685306
N      -0.863846   -3.659737   -2.445102
N      -0.606583   -3.990024   -1.261271
O       0.014090   -2.863319   -0.619430
H       0.979769    1.678361    0.363066
H      -0.158634    1.921597   -0.989826
H      -0.770770    1.723569    0.673672
H       0.697380    0.041279   -2.063341
H       2.748221   -1.241645   -1.418009
H       2.580607    0.204024   -0.412526
H       2.136296   -1.388203    0.244328
H      -0.602970   -1.891552   -3.641961
