18

C      -0.146915    1.422268    0.103082
N      -0.031322   -0.009839    0.243438
C      -1.130240   -0.897719   -0.071727
C      -0.497226   -2.283153    0.141387
N       0.927276   -2.013923   -0.028868
C       1.844298   -3.049461   -0.112536
N       3.103476   -2.902480   -0.161041
C       1.199667   -0.632616    0.098379
O       2.275318   -0.090835    0.093193
H       0.844630    1.851096    0.255386
H      -0.507153    1.706357   -0.896902
H      -0.838579    1.830000    0.848173
H      -1.989141   -0.733026    0.586458
H      -1.470743   -0.762457   -1.111146
H      -0.708351   -2.659449    1.150831
H      -0.855563   -3.019342   -0.582784
H       1.321334   -4.015463   -0.143339
H       3.547501   -3.816293   -0.235116
