14

C       0.035111    1.477354    0.063682
C      -0.025180   -0.056847   -0.001225
C       0.786121   -0.654528   -1.202927
O       1.802065   -1.462390   -0.571533
C       1.582009   -1.356405    0.755369
N       0.629824   -0.643631    1.195143
C      -1.430239   -0.497187   -0.049118
N      -2.532733   -0.834577   -0.122003
H       1.080868    1.794515    0.097085
H      -0.446399    1.921966   -0.811928
H      -0.467646    1.834717    0.964280
H       0.188834   -1.293645   -1.855002
H       1.277935    0.121006   -1.794972
H       2.276911   -1.915352    1.371925
