20

C      -0.073888    1.610351    0.042813
C      -0.002240    0.081507   -0.010365
C       0.793062   -0.506480    1.160765
C       0.824238   -2.046168    1.193008
C       1.578121   -2.672147    0.011542
C       1.426617   -2.530084    2.505692
F       0.743105   -2.071446    3.568634
F       1.423787   -3.872046    2.589480
F       2.701959   -2.126980    2.650246
H       0.927128    2.054180    0.007492
H      -0.645523    2.011054   -0.799807
H      -0.554131    1.952702    0.965957
H      -1.018666   -0.334259   -0.003325
H       0.446548   -0.224073   -0.962745
H       1.823548   -0.130415    1.134045
H       0.358444   -0.146788    2.100236
H      -0.207460   -2.420536    1.199522
H       1.602232   -3.760892    0.096963
H       1.093498   -2.418266   -0.933302
H       2.609961   -2.309417   -0.024481
