21

C       0.075957    1.566451   -0.183575
C       0.018957    0.056693    0.071923
C      -1.403506   -0.521382    0.127259
C      -1.442922   -2.045498   -0.095220
C      -2.879132   -2.581519   -0.126928
C      -3.701282   -2.050420    1.011919
C      -3.351724   -0.972390    1.724069
C      -2.135322   -0.179999    1.430714
O      -1.766437    0.700070    2.185028
H       1.113160    1.912079   -0.239424
H      -0.408686    1.823329   -1.132992
H      -0.424990    2.112361    0.617520
H       0.568983   -0.465785   -0.721060
H       0.531732   -0.174886    1.012869
H      -2.002846   -0.059054   -0.675566
H      -0.925086   -2.295807   -1.027109
H      -0.891415   -2.540438    0.714972
H      -3.367080   -2.303535   -1.074546
H      -2.885404   -3.677879   -0.108033
H      -4.619309   -2.581969    1.254427
H      -3.942187   -0.622283    2.565228
