18

C      -0.026219    1.566105   -0.007919
C       0.011203    0.037194   -0.021716
C       0.768090   -0.512465   -1.236232
C       0.789036   -2.014365   -1.241712
N       0.683881   -2.698339   -2.294850
O       0.946938   -2.651945   -0.016598
C       0.886864   -2.029967    1.213697
O       1.013427   -2.708221    2.189578
C       0.682065   -0.528424    1.233463
H       0.987442    1.982714    0.017664
H      -0.526027    1.954723   -0.900497
H      -0.564170    1.940107    0.868922
H      -1.021116   -0.336074   -0.062500
H       0.336134   -0.186783   -2.183801
H       1.804541   -0.146025   -1.207540
H       0.737096   -3.696349   -2.080380
H       1.678892   -0.079116    1.349879
H       0.131084   -0.298093    2.148385
