18

C      -0.083822    1.510613    0.086589
C      -0.058968    0.002027   -0.097240
C       0.821123   -0.470915   -1.246419
C       0.766021   -1.996095   -1.333397
C       1.060670   -2.664137   -0.000329
O       1.455227   -3.798109    0.078551
C       0.828021   -1.834659    1.269347
N       1.077186   -2.355913    2.395711
O       0.407067   -0.544043    1.156930
H       0.928795    1.895966    0.238735
H      -0.512728    1.992059   -0.797017
H      -0.688567    1.778729    0.956407
H      -1.084918   -0.363240   -0.257674
H       0.480225   -0.017220   -2.182562
H       1.848626   -0.127384   -1.074100
H      -0.246339   -2.311490   -1.625222
H       1.448425   -2.412377   -2.078697
H       0.887709   -1.678671    3.139018
