17

C       0.678809    1.425362    0.179235
C      -0.140726    0.157714    0.040194
O      -0.790435   -0.307991    0.946838
C      -0.092947   -0.479647   -1.328199
O      -0.522898   -1.824328   -1.459398
C      -1.343742   -0.832033   -2.081811
C      -2.725238   -0.645099   -1.493216
C      -1.268683   -0.783218   -3.525696
C      -1.237677   -0.729995   -4.726051
H       1.746275    1.193467    0.084302
H       0.435977    2.133781   -0.621142
H       0.490918    1.880768    1.151725
H       0.775549   -0.217013   -1.933115
H      -2.681295   -0.693151   -0.405512
H      -3.146036    0.314512   -1.807709
H      -3.382790   -1.438102   -1.860981
H      -1.204112   -0.691240   -5.787105
