15

N      -0.059071    1.242503    0.283226
C      -0.005625    0.019581   -0.014078
O       1.146863   -0.666375   -0.313063
C       0.857797   -1.922790   -0.939715
C      -0.593669   -2.259367   -0.590517
N      -0.817824   -2.826127    0.741499
C      -1.387116   -1.702615    1.293411
O      -1.849224   -1.457904    2.367732
C      -1.178360   -0.923974   -0.054338
H       0.870643    1.664075    0.248735
H       0.983277   -1.821029   -2.024920
H       1.573440   -2.661201   -0.568228
H      -1.129665   -2.769849   -1.393309
H      -0.622768   -3.736377    1.132678
H      -2.075634   -0.497379   -0.495336
