14

O      -0.049788    1.449442    0.033424
C       0.035802    0.076043   -0.038312
C       1.213014   -0.648734    0.697355
O       0.974726   -2.054869    0.649725
C       1.552209   -1.435273   -0.499609
C       0.388101   -0.776154   -1.318586
N      -0.933798   -1.377121   -1.206800
C      -1.303246   -0.725235   -0.034988
O      -2.272614   -0.795222    0.662092
H       0.836984    1.827307    0.043641
H       1.815174   -0.261202    1.513192
H       2.500621   -1.820920   -0.855882
H       0.645419   -0.320392   -2.274267
H      -1.246034   -2.288677   -1.511925
