17

C      -0.150070    1.421036   -0.078556
C       0.051961   -0.098066    0.016226
C       0.797706   -0.648643   -1.185982
C       0.593278   -2.046434   -1.632223
N       0.079393   -0.923716   -2.439187
C       0.782477   -0.466683    1.303405
F       0.142741    0.006758    2.385826
F       0.884234   -1.796425    1.454286
F       2.029062    0.035575    1.324810
H       0.814032    1.936760   -0.109450
H      -0.695238    1.668423   -0.992788
H      -0.713939    1.799179    0.776993
H      -0.924234   -0.595289    0.083326
H       1.774378   -0.196188   -1.343672
H       1.411273   -2.599637   -2.083583
H      -0.111489   -2.656521   -1.074059
H      -0.923922   -0.828718   -2.294680
