18

C      -0.316857    1.343494   -0.166390
C      -0.047793   -0.118159    0.085857
N       0.107927   -0.719743    1.193786
O       0.015455   -0.785309   -1.085078
C       0.281293   -2.194170   -1.007711
C       0.320686   -2.730137   -2.408947
C      -0.128580   -4.122156   -2.660095
N      -0.926712   -2.985223   -3.144842
H       0.480477    1.772195   -0.781057
H      -1.251629    1.463767   -0.722221
H      -0.383307    1.897092    0.771403
H       0.028566   -0.066022    1.969175
H       1.230812   -2.353175   -0.484508
H      -0.501611   -2.680883   -0.413528
H       1.112058   -2.317766   -3.031060
H       0.348509   -4.713644   -3.435866
H      -0.495089   -4.699010   -1.814266
H      -1.723407   -2.832398   -2.530163
