14

C      -0.004215    1.376160    0.099374
O       0.058205   -0.039992    0.028198
C       0.610296   -0.580047   -1.070669
C       1.116524    0.095372   -2.124210
O       1.661340   -0.513865   -3.205594
N       1.707250   -1.950533   -3.242178
N       1.252287   -2.582175   -2.294366
C       0.658182   -2.031211   -1.110839
N       0.218876   -2.791279   -0.189944
H       0.999134    1.820436    0.071203
H      -0.606353    1.789442   -0.720085
H      -0.478480    1.609246    1.052504
H       1.144378    1.172027   -2.222994
H       0.370621   -3.765941   -0.459513
