22

C       0.439965    1.465943   -0.441117
C       0.230508   -0.007958   -0.220829
C      -0.985508   -0.546086    0.498618
C       0.369518   -0.831262    1.070550
C       0.996687   -2.001280    0.305858
C       0.976479   -1.128745   -0.988754
N       0.497833   -1.753540   -2.213680
C      -0.834276   -1.451830   -2.727478
C       0.381258   -0.927996   -3.409071
H       1.501956    1.700995   -0.579147
H      -0.096636    1.827767   -1.326876
H       0.080136    2.048411    0.414372
H      -1.569695    0.210644    1.013863
H      -1.581024   -1.359116    0.090409
H       0.668759   -0.482615    2.051593
H       2.006660   -2.273011    0.618931
H       0.385555   -2.908139    0.263864
H       1.995900   -0.784719   -1.196117
H      -1.380896   -2.294673   -3.142611
H      -1.443658   -0.727612   -2.194637
H       0.574152    0.140231   -3.321627
H       0.739718   -1.378145   -4.331444
