17

C       0.051671    1.491661    0.046143
C       0.047497   -0.014401   -0.018753
C       0.114757   -0.694442   -1.237487
C       0.107042   -2.083672   -1.229495
C       0.032849   -2.748992   -0.012174
C      -0.031500   -1.995998    1.163080
C      -0.113667   -2.652427    2.517635
N      -0.023953   -0.657365    1.153281
H       0.110861    1.940635   -0.948401
H      -0.855313    1.854090    0.540554
H       0.900207    1.844909    0.640829
H       0.171730   -0.141577   -2.168655
H       0.158182   -2.640559   -2.159869
H       0.024592   -3.832461    0.032601
H       0.732164   -2.345887    3.141361
H      -1.023227   -2.337320    3.039027
H      -0.114514   -3.742531    2.441035
