20

C      -0.128934    1.640548    0.015102
C       0.008193    0.126999   -0.013047
C      -1.354601   -0.560836   -0.161331
O      -1.945126   -0.360868   -1.434796
C       1.063480   -0.499391   -0.970160
O       1.817818    0.451423   -1.692215
C       1.702062   -1.119699    0.274326
C       2.065091   -0.070091    1.244505
N       0.660312   -0.507831    1.202910
H       0.835234    2.150010    0.010016
H      -0.667849    1.992733   -0.871134
H      -0.685892    1.946550    0.907650
H      -1.220087   -1.641516   -0.054025
H      -2.013494   -0.232479    0.656146
H      -2.228499    0.556052   -1.495493
H       0.613095   -1.237728   -1.643023
H       2.459150   -0.016904   -2.236265
H       2.013666   -2.154078    0.381303
H       2.567969   -0.385253    2.153654
H       2.346848    0.915036    0.886981
