16

O       0.046314    0.035381    0.294589
C       0.008203    1.214655    0.056604
C      -1.231384    2.084193   -0.065509
C      -0.976108    3.306352   -0.573881
C       0.470971    3.367466   -1.005285
C       1.809685    3.919447   -0.372733
C       1.403524    3.307143    0.969322
C       1.092891    2.253286   -0.157444
N       2.490924    2.571006   -0.683011
H      -2.201449    1.699646    0.227018
H      -1.724398    4.073633   -0.747258
H       0.556974    3.218828   -2.089152
H       2.329654    4.857449   -0.573945
H       2.225816    3.028272    1.626457
H       0.550255    3.737478    1.490375
H       2.502609    2.419826   -1.697115
