15

O       0.227514    1.298518    0.386220
C      -0.035338    0.159087   -0.440656
C      -1.350062   -0.469219   -0.169648
C      -1.738512   -1.727199    0.204430
O      -0.932379   -2.789997    0.422238
N      -3.103349   -1.836896    0.337037
C      -3.548507   -0.634741    0.049637
O      -4.829912   -0.237692    0.062370
N      -2.570592    0.229843   -0.275502
H       0.151732    1.001832    1.299915
H       0.028622    0.549690   -1.464066
H       0.740060   -0.612279   -0.338015
H      -1.508355   -3.524061    0.665501
H      -5.352241   -1.005206    0.326524
H      -2.674668    1.216332   -0.442093
