18

C      -0.228648    1.585152   -0.107441
C       0.105785    0.096980    0.000136
N       0.792817   -0.403852   -1.176855
N       0.111713   -0.498055   -2.362967
C       1.054608   -0.946191   -3.167921
O       0.809893   -1.190296   -4.463586
N       2.274736   -1.146365   -2.607883
C       2.074251   -0.790006   -1.342706
C       3.108521   -0.817587   -0.267115
H       0.680886    2.187299   -0.193263
H      -0.847099    1.766677   -0.989184
H      -0.777613    1.912000    0.780650
H       0.748169   -0.100227    0.862217
H      -0.808941   -0.490616    0.125498
H       1.638633   -1.509601   -4.839959
H       3.297992    0.179447    0.144490
H       2.816663   -1.470407    0.562471
H       4.038139   -1.196344   -0.692878
