20

C       0.028597    1.537010   -0.037772
C       0.055863    0.009812    0.096159
C       0.691147   -0.415599    1.425419
C      -1.369653   -0.567924   -0.073550
C      -1.422331   -2.062505   -0.145073
N      -1.012437   -2.735604   -1.227206
N      -1.206134   -4.004872   -0.893462
N      -1.711130   -4.235647    0.308737
C      -1.856180   -3.006333    0.806102
H       1.035537    1.957958    0.048783
H      -0.383880    1.847424   -1.003581
H      -0.587491    1.989056    0.749131
H       0.664887   -0.397526   -0.721267
H       0.728585   -1.504339    1.525319
H       1.714452   -0.035615    1.509276
H       0.120868   -0.020328    2.275361
H      -1.998164   -0.228726    0.759218
H      -1.809289   -0.155776   -0.988817
H      -0.991346   -4.756214   -1.528753
H      -2.257148   -2.852661    1.795555
