16

C       0.050877    1.500261    0.125651
C      -0.039823    0.005116    0.087014
C      -1.331355   -0.820604   -0.070183
C      -0.736145   -1.820248    0.959916
O      -1.185915   -2.768372    1.528941
C       0.554198   -1.030605    1.083727
N       1.103636   -0.783790   -0.271702
C       1.441798   -0.813498    2.247849
O       1.204174   -1.205262    3.362002
H       1.061797    1.820390    0.387121
H      -0.190116    1.915252   -0.859774
H      -0.656123    1.918084    0.848244
H      -2.229295   -0.351462    0.343795
H      -1.549099   -1.178931   -1.081213
H       0.897233   -1.548394   -0.912463
H       2.357614   -0.232429    2.001611
