14

C      -0.064580    1.341648    0.100312
N      -0.072792   -0.105207    0.001312
C       0.617564   -0.635431   -0.942961
N       1.402563   -0.026839   -1.875945
C       0.597663   -2.134416   -1.062170
O       1.167195   -2.700142   -1.967010
C      -0.184763   -2.929405    0.006657
O      -0.298631   -4.121921   -0.091710
H       0.954068    1.736715    0.237703
H      -0.481900    1.819826   -0.800816
H      -0.669523    1.655650    0.953194
H       1.318553    0.958506   -2.052838
H       1.746918   -0.616516   -2.618521
H      -0.610152   -2.340225    0.834303
