21

C       0.057836    1.533139   -0.043829
C       0.002822    0.003666    0.046945
C       0.743562   -0.533474    1.277740
N      -1.380779   -0.479017    0.010271
C      -2.385240   -0.196258    0.888401
N      -3.508986   -0.804464    0.578320
C      -3.234315   -1.528044   -0.562446
C      -4.276328   -2.364103   -1.232636
C      -1.924498   -1.337803   -0.924601
H       1.097303    1.870103   -0.099203
H      -0.471054    1.889684   -0.931571
H      -0.398731    1.998297    0.835368
H       0.475659   -0.411272   -0.849004
H       0.307506   -0.140977    2.201729
H       0.694907   -1.624940    1.315001
H       1.795374   -0.233239    1.247565
H      -2.241854    0.459275    1.734469
H      -5.130178   -1.754232   -1.547563
H      -3.871514   -2.865178   -2.116484
H      -4.664182   -3.131110   -0.553403
H      -1.335780   -1.721079   -1.742542
