18

C      -0.179695    1.595279   -0.147604
C      -0.008864    0.104534    0.050566
N       1.166023   -0.559824   -0.708006
C       2.130061   -0.142706    0.433204
C       2.543925   -1.537148    0.886549
O       2.424773   -1.559066    2.332588
C       1.207838   -0.816741    2.640566
C       0.822845   -0.470972    1.215724
C       1.138921   -1.708960    0.326038
H       0.741697    2.146446    0.060528
H      -0.474514    1.803060   -1.181037
H      -0.963443    1.983360    0.511508
H      -0.947075   -0.427032   -0.149278
H       2.688517    0.791593    0.412779
H       3.440243   -2.084668    0.600940
H       0.500574   -1.469832    3.162696
H       1.453031    0.041727    3.274539
H       0.516961   -2.592618    0.182587
