18

O       0.090002    1.274369   -0.385281
C      -0.091716   -0.035817    0.142696
C      -1.581410   -0.328655    0.111781
N      -2.050850   -0.260007   -1.269941
C      -3.381717   -0.511406   -1.539058
C      -4.264596   -0.004283   -2.449823
C      -5.469312   -0.770871   -2.292173
C      -5.236888   -1.665201   -1.303305
O      -3.952156   -1.519111   -0.832081
H       1.028326    1.415621   -0.537669
H       0.438938   -0.783198   -0.464252
H       0.273574   -0.104509    1.178067
H      -1.764215   -1.332392    0.504002
H      -2.104963    0.386460    0.766641
H      -1.721914    0.584881   -1.718234
H      -4.084103    0.807283   -3.135994
H      -6.388852   -0.654869   -2.844823
H      -5.822495   -2.426220   -0.817610
