23

C       1.907048    1.594032   -0.498471
C       2.067873    0.107038   -0.770388
O       0.775217   -0.436718   -1.010826
C       0.733607   -1.776014   -1.489011
C       1.121648   -2.737736   -0.364810
O       0.323659   -2.520502    0.781547
C      -0.637322   -2.109066   -2.123187
C       0.111049   -2.817836   -3.285606
C       1.415418   -2.091489   -2.851464
H       1.453028    2.094549   -1.358244
H       1.263663    1.759058    0.370743
H       2.880330    2.052796   -0.299980
H       2.714379   -0.056632   -1.644948
H       2.549109   -0.385764    0.087467
H       0.965547   -3.773427   -0.685822
H       2.195177   -2.630110   -0.135117
H       0.200347   -1.563940    0.832689
H      -1.327757   -2.693792   -1.512466
H      -1.130563   -1.191158   -2.450793
H       0.172195   -3.900129   -3.147604
H      -0.247251   -2.621308   -4.297565
H       1.577542   -1.174917   -3.424953
H       2.344162   -2.668809   -2.832894
