19

C       0.003030    1.497824    0.071931
C       0.005186   -0.008720   -0.019416
C       0.637926   -0.719960   -1.244234
C       0.267618   -2.097056   -0.682860
C       0.913913   -2.069095    0.712134
N       0.681223   -0.663794    1.143183
O      -1.166068   -1.963922   -0.473389
C      -1.370884   -0.666213   -0.062856
N      -2.481268   -0.141759    0.212498
H       1.026712    1.888195    0.086903
H      -0.521220    1.934764   -0.781136
H      -0.510887    1.815792    0.981884
H       0.144275   -0.506726   -2.195608
H       1.714374   -0.548889   -1.329042
H       0.443211   -2.985599   -1.285993
H       0.416108   -2.777150    1.381952
H       1.978324   -2.325456    0.666861
H       1.566466   -0.193383    1.300777
H      -3.239776   -0.818453    0.107504
