19

C       0.532436    1.542921   -0.269964
C      -0.024469    0.161264    0.100881
C       0.209396   -0.876932   -1.015292
C       1.580087   -1.495786   -0.713069
O       2.262693   -2.116277   -1.484039
C       1.938577   -1.181759    0.748633
C       0.716320   -0.462746    1.289137
C       0.557346   -0.012327    2.671890
O      -0.094150   -1.202505    2.214962
H       1.594360    1.493898   -0.537377
H      -0.002273    1.954481   -1.131574
H       0.430641    2.248726    0.559948
H      -1.083714    0.250438    0.356507
H      -0.527442   -1.688025   -0.949993
H       0.171467   -0.481075   -2.032830
H       2.168282   -2.093320    1.305439
H       2.835592   -0.551534    0.759289
H       1.363205   -0.165438    3.389048
H      -0.103854    0.824637    2.896277
