17

O      -0.066203    1.295846    0.003045
N       0.012968   -0.099556    0.122315
C      -1.131489   -0.633962    0.053136
C      -2.548296   -0.177550   -0.227719
C      -2.888546   -1.667836   -0.548698
C      -1.503152   -2.105817    0.035839
C      -0.651863   -3.068329   -0.804532
C       0.611306   -3.434184   -0.165998
N       1.598603   -3.744616    0.347444
H       0.859179    1.557702    0.063562
H      -3.057438    0.208789    0.660734
H      -2.662386    0.551907   -1.032646
H      -3.768083   -2.088509   -0.059623
H      -2.958380   -1.853855   -1.623560
H      -1.610134   -2.503428    1.050982
H      -1.218701   -3.988582   -0.990435
H      -0.436141   -2.619269   -1.780323
