17

O      -0.053976    1.495272    0.002653
C       0.034105    0.071811   -0.020861
C       0.671749   -0.502050    1.255988
C      -0.140599   -1.322973    1.934051
C      -1.457868   -1.393123    1.253263
C      -2.331784   -0.187966    1.102147
C      -1.351929   -0.547875    0.002447
C      -1.803176   -1.829903   -0.704402
O      -1.975510   -2.540591    0.557660
H       0.840087    1.847850    0.061308
H       0.588483   -0.252272   -0.916597
H       1.663273   -0.198980    1.584659
H       0.099577   -1.821272    2.866664
H      -3.393176   -0.332650    0.924220
H      -2.065587    0.683698    1.687044
H      -2.733892   -1.794041   -1.282761
H      -1.012285   -2.292808   -1.306878
