23

C       0.047907    1.391282    0.052419
O       0.039681   -0.015579    0.056326
C      -1.262111   -0.559288    0.005180
C      -1.153890   -2.086141    0.033259
C      -0.435722   -2.547075    1.311005
C      -2.538242   -2.765375   -0.109547
C      -3.295674   -2.390421   -1.400921
C      -2.363616   -4.273891   -0.119949
O      -2.933125   -5.049530    0.602282
H       1.091565    1.712943    0.087473
H      -0.419795    1.800726   -0.857331
H      -0.481784    1.806262    0.924702
H      -1.859658   -0.207943    0.866218
H      -1.771362   -0.213197   -0.907417
H      -0.543064   -2.375261   -0.834307
H      -1.035609   -2.312424    2.198230
H      -0.260235   -3.627233    1.310363
H       0.526413   -2.041299    1.407203
H      -3.159942   -2.525831    0.761272
H      -4.222844   -2.965678   -1.483526
H      -3.563885   -1.331816   -1.416055
H      -2.688922   -2.596897   -2.289796
H      -1.656356   -4.636270   -0.906194
