19

C       0.033164    1.489189    0.107132
C       0.010582   -0.005980    0.008857
C      -0.953081   -0.879028    0.830580
C      -1.091500   -2.228723    0.129871
C       0.408997   -2.069984   -0.227926
C       0.546155   -1.043258    0.967146
C       0.449764   -0.846742   -1.204985
C      -0.344994   -0.857351   -2.421702
C      -1.008855   -0.856093   -3.425481
H       1.015915    1.892573   -0.162622
H      -0.708516    1.939013   -0.562719
H      -0.193859    1.820397    1.126088
H      -1.633440   -0.416375    1.534838
H      -1.241740   -3.034703    0.853608
H      -1.798405   -2.331716   -0.699511
H       1.041265   -2.933622   -0.420941
H       1.216719   -0.969037    1.810944
H       1.493210   -0.606688   -1.439913
H      -1.593609   -0.857216   -4.311748
