23

C      -0.194664    1.539363   -0.012416
C       0.004322    0.028952    0.012286
C       1.176828   -0.597554   -0.853943
C       1.452306   -0.192473   -2.284307
C       2.123027   -0.217401    0.339000
C       0.861107   -0.605768    1.187314
C       0.691068   -0.212280    2.637201
C       0.744870   -2.088043    0.793717
C       0.948867   -2.082728   -0.525526
H       0.728439    2.107311    0.132417
H      -0.626720    1.851911   -0.969978
H      -0.895849    1.844958    0.772591
H      -0.960653   -0.466347   -0.138956
H       1.569633    0.892035   -2.378678
H       2.372432   -0.658127   -2.655658
H       0.635414   -0.498100   -2.948496
H       3.019361   -0.828436    0.475173
H       2.379882    0.845192    0.383011
H       0.773413    0.871277    2.771184
H      -0.288079   -0.521831    3.021022
H       1.456357   -0.682228    3.265572
H       0.527898   -2.907417    1.466246
H       0.946165   -2.896520   -1.238603
