18

C       0.135763    1.392149   -0.089673
O      -0.284937    0.061692    0.178172
C       0.516892   -0.582839    1.122238
C       0.131980   -1.998869    1.523659
C       0.399233   -3.014808    0.491439
C       0.269189   -2.835917   -1.003185
N       1.577998   -2.503759    1.273509
C       1.882206   -1.199430    0.717594
O       2.885674   -0.805458    0.208511
H       1.154190    1.419682   -0.494999
H      -0.559977    1.801757   -0.824453
H       0.100601    2.008304    0.821382
H       0.665141    0.045233    2.016654
H      -0.358878   -2.242672    2.458351
H       0.183378   -4.028348    0.823806
H       0.365873   -1.794384   -1.310603
H       1.026350   -3.433156   -1.520845
H      -0.716728   -3.188923   -1.322528
