20

C      -0.259273    1.594082   -0.070365
C      -0.030751    0.087935    0.033294
C      -1.299191   -0.697504   -0.286766
O       0.970401   -0.260402   -0.990953
C       1.994518   -0.836684   -0.337025
N       1.945911   -0.987823    0.920913
C       0.652437   -0.417909    1.350688
C       0.924636    0.596178    2.468577
O       1.568499   -0.040186    3.551143
H       0.668563    2.150923    0.077973
H      -0.650331    1.842833   -1.060923
H      -0.987031    1.927510    0.675464
H      -1.689987   -0.425177   -1.271383
H      -1.098630   -1.772555   -0.277286
H      -2.070065   -0.486637    0.461727
H       2.820808   -1.140200   -0.971686
H       0.056119   -1.223933    1.795935
H       1.528084    1.430185    2.077807
H      -0.013405    1.011269    2.853160
H       2.287515   -0.553519    3.159690
