14

C      -0.067944    1.442658    0.104878
N      -0.027946   -0.008361    0.056975
C       0.531826   -0.578767   -0.923715
N       1.148698    0.021598   -2.023244
N       1.741100   -0.609847   -3.062847
N       1.779453   -1.864201   -3.112346
C       1.191816   -2.656813   -2.060303
O       1.226105   -3.857729   -2.103077
N       0.601008   -1.957621   -1.024760
H       0.935826    1.893765    0.138071
H      -0.608825    1.881262   -0.747984
H      -0.590853    1.752208    1.012010
H       1.182187    1.025130   -2.097326
H       0.180987   -2.489983   -0.274221
