20

O      -0.501397    1.403236    1.190996
C      -0.694823    0.000182    1.283085
C      -1.239637   -0.480805   -0.058503
C      -1.397503   -1.983069   -0.089648
C      -2.664426   -2.721847    0.234091
C      -3.944202   -1.965180    0.194785
C      -4.169095   -1.499730   -1.034797
C      -3.056367   -1.922850   -1.967916
N      -2.111525   -2.717816   -1.147244
H      -0.165287    1.716674    2.035547
H       0.250734   -0.518368    1.511976
H      -1.408502   -0.255101    2.082811
H      -2.185807    0.030403   -0.249554
H      -0.539647   -0.171729   -0.845531
H      -0.479134   -2.506923    0.179402
H      -2.613018   -3.654894    0.791494
H      -4.580849   -1.827826    1.060142
H      -5.004693   -0.882718   -1.344945
H      -3.424559   -2.550511   -2.790190
H      -2.545179   -1.068609   -2.432325
