18

C       0.026849    1.412874    0.464190
C      -0.055068   -0.065093    0.142408
C      -1.281843   -0.687414   -0.369069
O      -0.182772   -0.411269   -1.240308
C       1.388270    1.992055    0.203248
C       2.199846    2.628290    1.116430
N       3.353659    3.002424    0.474221
C       3.297039    2.613672   -0.840413
C       2.092178    1.984663   -1.040088
H      -0.736866    1.929118   -0.131620
H      -0.241362    1.557271    1.518435
H       0.649689   -0.696367    0.686249
H      -1.478099   -1.742526   -0.182699
H      -2.168275   -0.073375   -0.526314
H       2.046837    2.846493    2.161770
H       4.120576    3.490233    0.901360
H       4.113975    2.815285   -1.514598
H       1.740616    1.552249   -1.963851
