16

O       0.034676   -0.013605    0.213089
C      -0.018078    1.183839    0.059499
C      -1.284793    2.053592   -0.010119
C      -0.786794    3.497555   -0.011696
C       0.053787    3.947010    1.184045
C       0.738496    3.420850   -0.046977
N       1.062425    2.028164   -0.073524
C      -1.501257    4.481592   -0.767014
C      -2.120433    5.295176   -1.400818
H      -1.832297    1.823168   -0.928281
H      -1.938242    1.813085    0.832177
H       0.085373    5.014979    1.365524
H       0.053418    3.321450    2.071103
H       1.316037    4.074289   -0.689621
H       1.988914    1.679402    0.119271
H      -2.665137    6.014547   -1.960392
