19

C      -0.014188    1.396004    0.023093
O       0.021043   -0.016444   -0.039899
C       0.652776   -0.520322   -1.143572
C       0.611866   -0.188227   -2.630642
C       0.812446   -1.696192   -2.957905
C       2.138003   -1.693891   -2.200311
C       1.953883   -0.185888   -1.863672
C       0.842545   -2.034341   -1.471069
C       0.427982   -3.269051   -0.741864
H       0.998432    1.822479    0.053118
H      -0.553049    1.823431   -0.834320
H      -0.540032    1.659999    0.942583
H       0.152291    0.622487   -3.179724
H       0.482897   -2.313406   -3.784680
H       3.019260   -2.308985   -2.335073
H       2.658158    0.626823   -1.747695
H       0.877363   -3.317863    0.256499
H      -0.660093   -3.319982   -0.621237
H       0.744316   -4.161225   -1.293813
