17

O       0.214961    1.138103    0.792272
C       0.039789   -0.163027    0.252885
C      -1.434080   -0.477379   -0.025240
C      -1.696573   -1.984283   -0.323511
N      -2.230828   -2.559261    0.924180
C      -2.483051   -1.554751    1.684034
N      -2.254072   -0.292455    1.178578
C      -3.012920   -1.731653    3.061282
O      -3.181088   -0.809826    3.822244
H       0.017218    1.778989    0.101063
H       0.629376   -0.311298   -0.664990
H       0.424580   -0.854675    1.010532
H      -1.794324    0.168781   -0.834767
H      -2.438080   -2.115348   -1.120983
H      -0.792690   -2.519495   -0.635386
H      -1.997444    0.443732    1.823112
H      -3.217973   -2.785985    3.327259
