16

C       0.029081    1.451595    0.021469
C      -0.038380   -0.043214   -0.023011
O       0.899694   -0.629598   -0.923469
C       0.453155   -1.884596   -1.265859
N       0.938724   -2.633741   -2.154155
C      -0.678880   -2.200507   -0.319943
O      -0.039615   -2.233278    1.005248
C      -0.409900   -0.876197    1.198611
C      -1.320278   -0.829552   -0.012066
H       1.026061    1.784118    0.325249
H      -0.195369    1.881329   -0.959630
H      -0.695701    1.841564    0.742151
H       1.733260   -2.184869   -2.614127
H      -1.262363   -3.091638   -0.532467
H      -0.490517   -0.503705    2.213746
H      -2.326485   -0.479032   -0.197611
