17

C      -0.098591    1.574538    0.033168
C       0.027189    0.043611   -0.029836
C       0.834164   -0.506627   -1.179730
C       1.845972   -1.239618   -0.713012
N       1.841103   -1.269301    0.699913
C       2.756593   -1.926555    1.505272
N       3.712655   -2.596741    1.003205
C       0.771237   -0.506277    1.196035
O       0.526372   -0.329141    2.364903
H       0.885993    2.048936   -0.013086
H      -0.696729    1.946641   -0.803097
H      -0.580799    1.868114    0.969201
H      -0.983258   -0.388313   -0.013534
H       0.616739   -0.327963   -2.222387
H       2.623948   -1.785897   -1.222722
H       2.528583   -1.778656    2.563487
H       4.280054   -3.007548    1.741924
