14

N      -0.026780    1.260913    0.089979
C       0.055416   -0.096077    0.012388
O       1.078407   -0.738802   -0.035153
C      -1.340234   -0.777082   -0.048591
O      -1.266419   -2.178314   -0.106768
C      -1.407057   -2.643781    1.211289
O      -2.173698   -1.657614    1.922270
C      -2.118285   -0.497604    1.235850
O      -2.575928    0.543849    1.613022
H       0.831192    1.762760    0.260930
H      -0.889163    1.683578    0.404544
H      -1.890853   -0.401411   -0.915610
H      -1.960581   -3.584814    1.207914
H      -0.436951   -2.751528    1.712555
