14

C       0.065661    1.412338   -0.054280
N       0.053936   -0.032932   -0.020679
N       0.107537   -0.772203   -1.152973
C       0.078191   -2.016166   -0.752081
N       0.006334   -2.089452    0.624165
C      -0.011722   -0.798551    1.145162
O      -0.068657   -0.426392    2.295034
C       0.115412   -3.197709   -1.626313
O       0.177705   -3.162253   -2.829201
H       0.984826    1.775631   -0.521131
H      -0.795132    1.787941   -0.613506
H       0.014375    1.753369    0.980528
H      -0.028925   -2.915076    1.197544
H       0.080149   -4.159928   -1.066908
