14

O       0.071927    0.006212   -0.094762
C       0.024484    1.212998   -0.015440
C      -1.196114    2.070534    0.036298
C      -0.858393    3.370396    0.023378
C       0.630234    3.539635   -0.025364
O       1.233344    4.583375   -0.047308
C       1.198181    2.146268    0.000166
C       2.455408    1.776544    0.723653
N       2.432896    1.803314   -0.727926
H      -2.193375    1.649096    0.068379
H      -1.526858    4.222488    0.049272
H       3.015656    2.583170    1.187300
H       2.456983    0.819386    1.238202
H       2.313778    0.850766   -1.077230
