18

C      -0.086000    1.477645   -0.065117
C      -0.071823   -0.018339   -0.005771
N      -0.329599   -0.790200   -1.349962
C      -0.384225   -1.884370   -0.372583
N       0.641045   -2.637474   -0.301244
C       1.293918   -2.239530    0.964977
C       0.673941   -0.835758    1.206509
N       1.061511   -0.004528    2.302515
C      -0.767003   -0.998978    0.856441
H       0.666336    1.839139   -0.773157
H      -1.064660    1.849805   -0.390851
H       0.131949    1.880359    0.926449
H      -1.277923   -0.469943   -1.581042
H       1.110698   -2.889568    1.836398
H       2.374219   -2.233503    0.776593
H       0.851254   -0.451165    3.190649
H       2.059689    0.181570    2.283268
H      -1.661632   -0.967686    1.467460
