16

C      -0.000563    1.484332   -0.185089
O       1.448285    1.521509    0.095483
C       1.273771    0.334062    0.886550
C       1.851564   -1.066111    1.213905
C       0.473743   -1.065584    2.015328
C       0.765645    0.404305    2.357582
O      -0.615351   -0.926055    1.047214
C       0.037531   -0.047483    0.128758
H      -0.558587    2.111267    0.516785
H      -0.209881    1.772346   -1.217322
H       1.978275   -1.767915    0.387789
H       2.693713   -1.104527    1.906943
H       0.232203   -1.834545    2.744449
H       1.579185    0.549096    3.070382
H      -0.097129    1.025646    2.599799
H       0.237551   -0.578942   -0.807312
