23

C      -0.014065    1.600599    0.058511
C       0.225024    0.102477   -0.012034
O       1.235498   -0.167466   -0.983831
C       1.623804   -1.526805   -0.791447
C       2.878145   -1.815631   -1.597369
C       1.700505   -1.687844    0.735117
C       2.858741   -0.951982    1.471286
C       1.838858    0.035206    2.099654
C       0.692660   -0.614471    1.273691
H       0.899153    2.135664    0.331043
H      -0.347196    1.975505   -0.913263
H      -0.787094    1.829797    0.798696
H      -0.710756   -0.389196   -0.334669
H       0.811122   -2.182625   -1.155276
H       3.713592   -1.188421   -1.275975
H       3.168027   -2.865100   -1.485292
H       2.697797   -1.621048   -2.658265
H       1.541819   -2.721041    1.050187
H       3.414062   -1.566608    2.183365
H       3.577228   -0.473726    0.801916
H       1.708665   -0.097151    3.176513
H       2.028702    1.094586    1.912769
H      -0.158981   -0.964626    1.860768
