17

C       0.126275    1.493520   -0.077942
C      -0.044724   -0.011494    0.044552
O       0.532421   -0.653777   -1.117990
C       1.335644   -1.702899   -0.787895
O       1.773458   -2.470635   -1.593400
C       1.525697   -1.695808    0.706649
O       2.075906   -0.439972    1.153251
C       0.661701   -0.639311    1.245237
C       0.040347   -0.616582    2.611784
H       1.187707    1.749922   -0.052446
H      -0.303792    1.847346   -1.017720
H      -0.383190    2.002299    0.746349
H      -1.108083   -0.281804    0.064188
H       1.848079   -2.590132    1.227563
H      -0.102707    0.413246    2.955658
H      -0.936566   -1.109966    2.602949
H       0.686428   -1.126825    3.329508
