21

C       1.060294    1.502958   -0.614745
C       0.243646    0.332427   -0.066488
O       0.288251   -0.831455   -0.879861
C      -0.492747   -0.777849   -2.035569
C       0.125504   -0.376722   -3.351271
C      -0.220107   -1.825198   -3.064662
C       0.698136   -0.054848    1.353245
C       0.699608   -1.524441    1.710143
O       1.006855    0.808772    2.141481
H       2.089197    1.185616   -0.809847
H       0.629111    1.882048   -1.543531
H       1.079202    2.303282    0.127326
H      -0.808595    0.652005    0.046974
H      -1.529416   -0.492119   -1.851577
H      -0.477295    0.176448   -4.063475
H       1.176383   -0.112795   -3.339140
H       0.605584   -2.496884   -2.859165
H      -1.059862   -2.279690   -3.577711
H      -0.282218   -1.967639    1.515539
H       1.405610   -2.062520    1.070418
H       0.970527   -1.640526    2.760021
