14

C      -0.051125    1.379730    0.074150
O       0.020753   -0.052724   -0.032723
C       0.633038   -0.539568   -1.104658
N       1.142063    0.210424   -2.011872
C       1.755930   -0.404184   -3.085144
N       2.287355    0.240762   -4.030360
O       1.791091   -1.822810   -3.127259
N       1.237924   -2.604664   -2.141960
C       0.678408   -1.992697   -1.164721
H       0.952837    1.809146    0.099422
H      -0.592294    1.797076   -0.777868
H      -0.581590    1.572201    1.005790
H       2.683464   -0.397829   -4.719431
H       0.241422   -2.607110   -0.386493
