16

N       0.149067   -1.037626   -0.919660
C       0.055524    0.012132   -0.446818
C      -0.036048    1.338287    0.165059
C       1.327182    2.012729    0.240736
N       1.740070    2.799611   -0.922096
C       1.521148    3.484510    0.352590
C       0.379414    4.490856    0.404665
C       0.821552    5.824441   -0.004635
N       1.191733    6.872946   -0.317561
H      -0.728611    1.944423   -0.425199
H      -0.461985    1.228182    1.169427
H       2.080948    1.403247    0.735390
H       2.726775    2.685507   -1.131937
H       2.396644    3.798736    0.917464
H      -0.434056    4.178404   -0.255706
H      -0.023604    4.556225    1.422311
