18

C      -0.015495    1.588546   -0.050054
C       1.469012    1.251639   -0.033224
C       1.203626    0.115159    0.978200
C       1.858294   -0.964733    0.101189
O       3.195464   -0.935474   -0.348663
C       3.138811   -0.780415   -1.796346
C       1.669111   -0.389456   -2.229073
C       1.160873   -0.048883   -0.857301
N      -0.095288    0.065557    0.053538
H      -0.434693    2.100390    0.822256
H      -0.455465    1.981943   -0.972202
H       2.351679    1.893524   -0.093565
H       1.073073    0.186149    2.059422
H       1.467523   -1.982208    0.226983
H       3.856619   -0.000505   -2.067460
H       3.449940   -1.717222   -2.272035
H       1.663320    0.425208   -2.956632
H       1.143867   -1.249231   -2.655203
