14

O       0.995110    1.186647   -0.085780
C       0.449252   -0.046235   -0.034817
N       0.461161   -0.875176   -1.065057
N      -0.177555   -1.976878   -0.595123
C      -0.578995   -1.847787    0.687781
C      -0.189124   -0.590750    1.104113
C      -0.374139    0.083910    2.434423
C      -1.078518   -0.760009    3.398852
N      -1.636712   -1.442408    4.145470
H       1.361586    1.304648   -0.971219
H      -0.298357   -2.765927   -1.204943
H      -1.101449   -2.631934    1.212847
H       0.594236    0.366960    2.866604
H      -0.934368    1.021010    2.322152
