18

C       0.028140    1.498044   -0.188027
C      -0.014557   -0.017009    0.082425
C       0.753445   -0.380161    1.358569
C      -1.434319   -0.511887    0.110707
C      -2.130099   -1.115801    1.128320
N      -3.392744   -1.355578    0.625999
C      -3.407640   -0.894794   -0.654943
N      -2.250535   -0.382155   -0.997883
H       1.060502    1.842931   -0.310430
H      -0.531459    1.739877   -1.094573
H      -0.419280    2.052647    0.644755
H       0.479694   -0.511349   -0.765587
H       0.308434    0.102038    2.236922
H       0.758363   -1.461179    1.531787
H       1.792903   -0.044979    1.290997
H      -1.860082   -1.393926    2.132679
H      -4.154286   -1.793792    1.115516
H      -4.284175   -0.963042   -1.282351
