18

C       0.044254    1.500563    0.019838
C       0.039967   -0.011624   -0.014392
O       0.665696   -0.439117   -1.201320
C       0.511122   -1.839294   -1.393847
C       0.906849   -2.620047   -0.157290
C       2.233258   -2.368186    0.524091
C       0.958729   -1.856099    1.142956
O       0.737070   -0.471383    1.126126
H       1.073647    1.862386   -0.037535
H      -0.520927    1.894654   -0.827679
H      -0.405540    1.853864    0.950361
H      -0.990436   -0.414788    0.005258
H      -0.538403   -2.064199   -1.646721
H       1.130304   -2.099935   -2.257882
H       0.512885   -3.631109   -0.118184
H       2.742790   -3.205852    0.987330
H       2.878879   -1.611051    0.092694
H       0.588732   -2.322474    2.052151
