18

C      -0.087763    1.500590   -0.089746
C       0.000497   -0.018065    0.051612
O       0.618064   -0.559955   -1.112466
C       1.492682   -1.643708   -0.765862
C       1.279501   -1.907178    0.730358
C       0.857476   -0.524401    1.243805
O       1.955687    0.359062    1.379005
C      -1.365338   -0.592455    0.184941
N      -2.421844   -1.049150    0.289923
H       0.920328    1.909081   -0.149393
H      -0.639303    1.749699   -0.998691
H      -0.605302    1.938661    0.767693
H       1.250592   -2.509495   -1.389407
H       2.523673   -1.336447   -0.975879
H       0.471335   -2.626284    0.894058
H       2.175851   -2.281599    1.231699
H       0.264946   -0.570577    2.165801
H       2.525440    0.021311    2.076735
