14

O       0.106789    1.350518   -0.073662
C       0.078113   -0.011862   -0.029188
C      -0.022441   -0.694729   -1.241097
C      -0.053996   -2.085128   -1.229338
C       0.012209   -2.805402   -0.041415
C       0.112554   -2.111019    1.163951
O       0.175501   -2.845140    2.311116
C       0.145808   -0.715380    1.174769
H       0.176926    1.696006    0.821931
H      -0.073637   -0.128494   -2.162785
H      -0.132149   -2.620912   -2.169718
H      -0.011902   -3.887960   -0.025949
H       0.242696   -2.250749    3.065140
H       0.224195   -0.177907    2.118112
