15

O       0.108813    1.069995    0.926664
C      -0.033788    0.194304   -0.184541
C      -1.370789   -0.385923   -0.181789
C      -2.467298   -0.878102   -0.196495
C      -3.807182   -1.467606   -0.205972
C      -3.808710   -2.921618   -0.055884
C      -3.820085   -4.124325    0.064748
C      -3.831912   -5.478394    0.201192
C      -3.843787   -6.679630    0.321891
H       1.004801    1.421109    0.901554
H       0.124539    0.727297   -1.136364
H       0.706608   -0.621401   -0.149853
H      -4.405062   -1.020018    0.600833
H      -4.324859   -1.200082   -1.138223
H      -3.853346   -7.735813    0.428831
