13

C      -0.385610   -0.803104   -0.982479
C      -0.082483    0.068110   -0.212620
C       0.293261    1.128177    0.716096
C       1.510031    1.897871    0.283512
C       2.304624    1.756719   -0.828186
N       3.240681    2.723595   -0.678522
N       3.050328    3.427449    0.451185
N       2.000561    2.926473    1.034943
H      -0.665837   -1.576971   -1.653426
H      -0.545783    1.824442    0.842601
H       0.473122    0.701988    1.711496
H       2.275688    1.080999   -1.664889
H       4.013231    2.958049   -1.281067
