16

O       0.977171    1.212747    1.516524
C       0.444494    1.478124    0.450847
N       1.062208    1.440152   -0.748992
C       2.471680    1.046670   -0.891261
C       3.452249    2.064333   -0.411280
C       4.426352    2.799408   -1.040720
N       5.097214    3.593609   -0.141803
C       4.533925    3.343657    1.021168
N       3.540393    2.422267    0.917661
H      -0.619299    1.770540    0.374413
H       0.560601    1.764707   -1.559965
H       2.597677    0.103945   -0.346796
H       2.651802    0.844238   -1.948765
H       4.685119    2.792843   -2.089735
H       4.802795    3.798758    1.962848
H       2.905845    2.074843    1.625794
