19

O      -0.003679   -0.106753    0.137605
C       0.035908    1.095432    0.103473
C       1.297225    1.934316    0.078615
C       1.337305    2.850865   -1.200598
C       2.025074    4.136612   -0.707200
C       1.405100    5.582049   -0.662161
C       1.694821    5.615304    0.886970
C       1.792023    4.111260    0.775115
C       1.319884    2.954321    1.226069
H      -0.901553    1.702855    0.082336
H       2.145780    1.239971    0.109930
H       1.836564    2.359270   -2.039173
H       0.307616    3.070933   -1.511366
H       3.083151    4.185405   -0.990978
H       1.885715    6.351800   -1.269866
H       0.331667    5.569667   -0.866947
H       2.655024    6.097465    1.097676
H       0.936053    6.030676    1.553528
H       0.934549    2.732751    2.214502
