21

C      -0.016185    1.503982    0.067281
C      -0.068519    0.014709   -0.023044
C      -0.073244   -0.774956   -1.103086
C       0.009459   -2.222421   -0.628869
O      -0.448473   -3.223582   -1.503354
C       1.459685   -2.423183   -0.067543
C       1.467131   -1.506378    1.191377
C       0.016293   -0.909736    1.190827
C      -0.790372   -2.125583    0.684117
H       0.897796    1.839940    0.574962
H      -0.042600    1.969589   -0.922050
H      -0.857037    1.897171    0.652899
H      -0.027237   -0.472645   -2.143784
H       0.145344   -3.256445   -2.260308
H       1.604190   -3.476381    0.192525
H       2.222213   -2.148038   -0.802041
H       1.642508   -2.085537    2.102927
H       2.230150   -0.724774    1.146978
H      -0.285554   -0.468714    2.142353
H      -1.845203   -1.904425    0.508837
H      -0.691754   -3.017199    1.312213
