16

C      -0.116181    1.575602    0.059679
C      -0.000324    0.074649   -0.021853
O      -1.110009   -0.640537    0.429546
C       0.669904   -0.597832   -1.190363
C       1.234856    0.146179   -2.273931
C       1.711244    0.764216   -3.188103
C       1.346906   -0.617771    0.203357
C       2.541874    0.131627    0.448587
N       3.499120    0.744796    0.665462
H       0.764587    2.069190   -0.353620
H      -0.997525    1.905793   -0.497412
H      -0.224319    1.893351    1.103058
H      -1.288417   -0.376779    1.339964
H       0.229818   -1.554966   -1.453767
H       2.137979    1.310181   -3.992991
H       1.290540   -1.573045    0.713260
