19

C       0.054185    1.562842   -0.058958
C       0.067866    0.107341   -0.023387
C       0.081086   -1.097643    0.004389
C       0.092873   -2.547608    0.041355
C      -0.020117   -3.266560    1.413442
C      -1.568812   -3.041356    1.502815
C      -1.838731   -4.532348    1.786150
C      -0.675686   -4.538067    0.774683
C      -1.257697   -3.312884   -0.009348
H       0.806984    1.951723   -0.753860
H      -0.920801    1.945806   -0.381137
H       0.265657    1.988995    0.928330
H       0.867368   -2.956530   -0.619011
H       0.685796   -3.246701    2.245193
H      -2.064456   -2.158473    1.905196
H      -1.615246   -4.891302    2.796111
H      -2.795695   -4.935492    1.439008
H      -0.140333   -5.382012    0.336494
H      -1.983403   -3.346635   -0.823431
