18

C       0.096582    1.431104   -0.342612
C       0.012212    0.018318    0.249028
C      -1.364696   -0.592164    0.116082
O      -2.361633   -0.002621    0.914581
C      -1.925184   -1.139930   -1.176095
O      -0.999783   -1.523555   -2.188161
C      -0.279426   -2.541739   -1.643441
N      -0.553401   -2.931632   -0.464788
C      -1.628593   -2.081515   -0.006961
H       1.096918    1.852544   -0.208441
H      -0.124648    1.421958   -1.414818
H      -0.608185    2.114786    0.144770
H       0.755966   -0.626907   -0.225109
H       0.256462    0.041334    1.317484
H      -2.560283    0.866928    0.548531
H      -2.894505   -0.846508   -1.559619
H       0.489258   -2.948181   -2.289021
H      -2.374523   -2.520977    0.643721
