22

C      -0.023908    1.552528    0.001284
C      -0.007378    0.020752   -0.008036
O      -1.355045   -0.472782    0.057662
C       0.691136   -0.516868   -1.274327
C       0.778379   -2.049109   -1.287048
C       1.479538   -2.574391   -0.026993
C       0.785236   -2.062167    1.242306
C       0.686813   -0.530008    1.248960
H       0.990812    1.963846    0.004251
H      -0.536249    1.941225   -0.887585
H      -0.551614    1.921294    0.885877
H      -1.819495   -0.159825   -0.726084
H       0.155104   -0.153645   -2.162230
H       1.700368   -0.087038   -1.328801
H      -0.236558   -2.460951   -1.332966
H       1.302249   -2.386068   -2.188591
H       1.499853   -3.670093   -0.033132
H       2.528232   -2.243292   -0.029499
H      -0.225777   -2.480676    1.297718
H       1.321683   -2.402245    2.135362
H       1.692287   -0.093517    1.305215
H       0.136823   -0.185422    2.131594
