20

C       0.046913    1.451360   -0.243368
N      -0.144936    0.015540   -0.288041
C      -1.166832   -0.611580    0.365166
O      -1.984205   -0.006452    1.044899
C      -1.191624   -2.100442    0.185594
C      -1.883425   -2.924944    1.250933
C      -2.497618   -2.830952   -0.114289
C      -3.814872   -2.119883   -0.340040
O      -4.914824   -2.996600   -0.120356
H       1.034766    1.708540    0.154691
H      -0.058225    1.901743   -1.237078
H      -0.721179    1.859344    0.414338
H       0.483196   -0.538838   -0.844915
H      -0.306192   -2.530494   -0.273284
H      -1.415806   -3.851690    1.563162
H      -2.339438   -2.338423    2.042127
H      -2.373381   -3.705626   -0.747838
H      -3.872264   -1.221869    0.284080
H      -3.898649   -1.806968   -1.386632
H      -4.898816   -3.244470    0.809861
