16

N      -0.317365   -0.663011    1.037159
C      -0.115277    0.219364    0.320552
C       0.127779    1.341548   -0.596548
C       1.490108    1.862132   -0.516964
C       2.610916    2.293019   -0.464157
C       3.962766    2.834833   -0.372707
C       4.020974    4.140724    0.402587
C       5.032414    5.159812    0.103853
O       3.674413    5.321330   -0.313894
H      -0.096816    1.003967   -1.616606
H      -0.599544    2.131922   -0.370228
H       4.617419    2.101130    0.116480
H       4.368652    3.004510   -1.376979
H       3.613765    4.092258    1.412758
H       5.367690    5.837108    0.887478
H       5.749550    4.986053   -0.697720
