19

C       1.039551    1.322924   -0.699636
O       1.087740   -0.084104   -0.804146
C      -0.177837   -0.687463   -0.719801
C      -0.068984   -2.198734   -0.913195
O      -0.933548   -2.928332   -0.484444
C       1.144863   -2.732181   -1.663935
C       2.189729   -3.220175   -0.626456
C       0.757515   -3.899462   -2.560040
O       1.233290   -4.079900   -3.650864
H       0.431670    1.766069   -1.503040
H       0.623058    1.643326    0.267041
H       2.064700    1.689209   -0.784658
H      -0.665939   -0.500377    0.248343
H      -0.857147   -0.303664   -1.503790
H       1.597261   -1.950259   -2.276082
H       3.072412   -3.606986   -1.142100
H       2.493656   -2.387574    0.012568
H       1.770698   -4.011223    0.002236
H       0.013981   -4.593887   -2.118416
