20

C      -0.120719    1.515126    0.471335
C       0.037721    0.092961   -0.028345
C       1.406285   -0.337365   -0.532998
C       0.865109   -0.858796    0.784125
N      -1.170543   -0.388221   -0.651448
C      -1.344490   -1.798096   -1.062604
C      -2.009299   -1.273897   -2.344689
O      -2.634040   -1.763883   -3.235059
C      -1.540243    0.141783   -1.986710
H       0.793844    1.863656    0.959205
H      -0.338302    2.202560   -0.354155
H      -0.945697    1.577781    1.187841
H       1.461057   -1.037781   -1.360265
H       2.215987    0.383920   -0.514337
H       1.300052   -0.491726    1.707655
H       0.567223   -1.901261    0.824335
H      -0.420555   -2.349192   -1.302306
H      -1.954867   -2.411323   -0.391306
H      -2.293483    0.936422   -1.991789
H      -0.683797    0.451899   -2.608497
