20

C       0.090092    1.538087    0.150900
C       0.536048    0.080119    0.019839
C       0.296015   -0.719405    1.300688
C       0.719594   -2.166090    1.187416
O       1.156464   -2.702551    0.203965
O       0.521748   -2.806445    2.375643
C       0.851463   -4.162126    2.485231
C       2.325209   -4.443641    2.401985
N      -0.108209   -4.941591    2.717771
H       0.630037    2.050927    0.954854
H       0.272732    2.089427   -0.776138
H      -0.980117    1.609661    0.375057
H       0.007248   -0.404759   -0.807341
H       1.599587    0.032660   -0.238335
H       0.826193   -0.279472    2.154685
H      -0.764112   -0.709149    1.584372
H       2.531123   -5.492942    2.620994
H       2.689033   -4.203245    1.400299
H       2.866637   -3.815411    3.116902
H       0.234297   -5.892922    2.851152
