18

O       1.493023    2.367677    2.093465
C       1.845517    2.412802    0.943719
C       1.073583    1.833477   -0.224738
C       0.747759    2.918990   -1.239272
C       1.732709    3.342145   -2.281840
N       0.501712    2.661041   -2.657441
C       0.525723    1.305232   -3.223053
C       1.767687    0.530376   -3.131640
C       2.798597   -0.088822   -3.090764
H       2.799056    2.911453    0.653433
H       1.700046    1.062290   -0.687186
H       0.163815    1.363531    0.161263
H       0.078299    3.682124   -0.843795
H       1.809414    4.382348   -2.587271
H       2.661307    2.777313   -2.338887
H      -0.295667    0.739455   -2.767516
H       0.272197    1.407841   -4.285558
H       3.700808   -0.648604   -3.053612
