19

C      -0.340692    1.360877    0.342556
C       0.028845   -0.079518    0.061685
C       0.554306   -0.582986   -1.253255
C       0.887283    0.359138   -2.399682
C       2.015513    1.314944   -2.142794
C       2.794160    1.299516   -1.055027
C       2.642004    0.306660    0.030496
O       3.474196    0.208306    0.915078
C       1.461526   -0.606050   -0.027920
H       0.309870    2.073411   -0.167000
H      -1.369735    1.557048    0.020840
H      -0.285410    1.569869    1.416013
H      -0.626598   -0.785092    0.566438
H       0.171524   -1.546522   -1.575279
H       1.143689   -0.228801   -3.292415
H      -0.003620    0.934355   -2.692180
H       2.199579    2.050923   -2.923464
H       3.618810    1.994862   -0.933695
H       1.649212   -1.550393    0.470927
