13

C       0.049859    1.425492   -0.010305
N       0.015320   -0.018747    0.055537
N      -0.118667   -0.776666   -1.097038
N      -0.129201   -2.031683   -0.828654
C      -0.000081   -2.157295    0.541515
C       0.080108   -2.986614    1.624397
O       0.209135   -2.231971    2.726410
N       0.220417   -0.848738    2.421614
C       0.093032   -0.866887    1.112808
H       0.995119    1.806202    0.387048
H      -0.044656    1.704275   -1.059944
H      -0.777987    1.856466    0.560040
H       0.064247   -4.052578    1.782995
