14

O       0.261860    0.319994    1.149066
C      -0.144643    1.072393    0.306880
C       0.694299    1.487926   -0.838278
N       1.343845    1.816524   -1.736453
C      -1.561126    1.669009    0.287809
O      -1.444172    3.067360    0.278636
C      -2.330672    3.566589   -0.727891
C      -2.383419    2.415763   -1.727954
O      -2.223238    1.264232   -0.887460
H      -2.104267    1.292003    1.165743
H      -3.317268    3.776768   -0.295208
H      -1.902424    4.485964   -1.130336
H      -3.340503    2.322980   -2.245671
H      -1.571048    2.472646   -2.460503
