21

C      -0.238682    1.459544    0.176036
C      -0.088231   -0.047848    0.000637
C       0.753930   -0.517434   -1.245785
C       0.908945    0.374573   -2.468551
C       1.943836   -0.677509   -0.295702
C       3.335952   -1.085109   -0.446922
O       2.987833    0.305046   -0.276017
C       1.019802   -0.679723    0.925158
O       1.483097    0.011751    2.048523
H       0.718623    1.982224    0.086271
H      -0.918446    1.878255   -0.572621
H      -0.641365    1.684448    1.167745
H      -1.066146   -0.530500    0.084148
H       0.412431   -1.512696   -1.554393
H       1.312930    1.354011   -2.202746
H       1.592249   -0.078102   -3.195236
H      -0.053768    0.521812   -2.968455
H       3.861311   -1.534987    0.394288
H       3.729436   -1.336462   -1.430710
H       0.741454   -1.692315    1.237191
H       2.170395    0.610834    1.724671
