20

C      -0.098127    1.560065    0.033435
C       0.065189    0.055202    0.052141
C       1.359256   -0.670727   -0.217223
C       2.664768    0.111975   -0.089542
N       2.656110    0.553694    1.294389
C       1.644004    0.048123    2.070989
O       1.525172    0.198116    3.269131
C       0.729399   -0.745698    1.163410
C       0.063687   -1.952652    1.774533
H       0.766087    2.079308    0.453418
H      -0.240484    1.917625   -0.992600
H      -0.977332    1.858870    0.613522
H      -0.798786   -0.468428   -0.353566
H       1.353522   -1.523955   -0.885541
H       3.526666   -0.535253   -0.299535
H       2.712462    0.962912   -0.782017
H       3.382550    1.117080    1.705972
H      -0.520163   -1.653553    2.650142
H      -0.605856   -2.439432    1.059225
H       0.800842   -2.690879    2.108303
