22

C      -0.035594    1.477735    0.038016
C      -0.031933   -0.024401   -0.079093
C       0.955111   -0.697243   -1.035496
C       0.272274   -2.034426   -1.415730
C      -0.749189   -2.259509   -0.288095
C      -1.730129   -3.393861   -0.498946
C      -0.008488   -2.167115    1.073048
N      -0.328428   -0.708468    1.222522
C      -1.264868   -0.829840    0.044142
H       0.940708    1.842697    0.376496
H      -0.254640    1.945874   -0.928119
H      -0.783393    1.805312    0.764472
H       1.130197   -0.062013   -1.909066
H       1.930018   -0.846737   -0.557050
H      -0.247809   -1.941766   -2.376887
H       0.979342   -2.867352   -1.500133
H      -1.208127   -4.354516   -0.577777
H      -2.440799   -3.468615    0.330946
H      -2.305305   -3.254317   -1.421812
H      -0.515949   -2.710009    1.875391
H       1.059083   -2.418212    1.094855
H      -2.287078   -0.465818    0.065190
