17

C      -0.022642    1.508885    0.045439
C      -0.001825    0.057606    0.016963
C       0.016415   -1.152207   -0.008535
C       0.036436   -2.511953   -0.035938
C       0.052756   -3.721538   -0.064656
C       0.052274   -5.186309   -0.077546
C      -1.391248   -5.750718   -0.024461
C       0.783256   -5.712012   -1.236722
C       1.364360   -6.165896   -2.184622
H       0.977726    1.922794   -0.124729
H      -0.685645    1.911279   -0.728847
H      -0.376612    1.881381    1.013426
H       0.574026   -5.529114    0.828597
H      -1.951954   -5.438233   -0.907833
H      -1.361038   -6.842638    0.005416
H      -1.902886   -5.379945    0.866905
H       1.886728   -6.555968   -3.022840
