12

N       0.012632    1.301799    0.007646
C      -0.048526   -0.034942    0.000995
N      -1.210796   -0.645412    0.004011
C      -1.101830   -1.985985   -0.003642
O      -2.267059   -2.623860   -0.000637
N      -0.012708   -2.726752   -0.013298
C       1.185243   -2.111280   -0.016411
O       2.286124   -2.559891   -0.024736
O       1.131191   -0.628830   -0.008424
H       0.902781    1.767723    0.005315
H      -0.845798    1.824620    0.014972
H      -2.056398   -3.569723   -0.006686
