15

C      -0.093701    1.520357   -0.036987
C       0.026097    0.016388   -0.007669
C       1.326165   -0.676124   -0.233934
C       0.722546   -0.687601    1.182335
C       1.348783    0.096599    2.212084
C       1.871993    0.754162    3.071113
C       0.131412   -1.929531    1.622959
N      -0.353014   -2.925913    1.954836
H       0.798481    1.999781    0.372743
H      -0.225782    1.864723   -1.067906
H      -0.955825    1.857304    0.546395
H      -0.853039   -0.521467   -0.349674
H       1.340622   -1.622638   -0.760914
H       2.218565   -0.070530   -0.343421
H       2.334202    1.327414    3.836483
