14

O      -0.267163    0.346411   -0.529080
C       0.076815    1.207762    0.242114
C       1.322481    1.984902    0.077731
O       1.619104    3.043701    1.092562
C       2.605983    3.361437    0.141829
N       3.827971    3.103896    0.343003
C       4.022010    1.908818   -0.554256
C       2.571682    1.484269   -0.890801
C       1.836372    2.750124   -1.071411
H      -0.516749    1.490827    1.134852
H       4.597427    2.090119   -1.474040
H       4.565011    1.182235    0.056128
H       2.336698    0.590642   -1.461030
H       1.318651    3.215113   -1.899425
