16

C      -0.259546    1.502741    0.019326
C      -0.254288    0.014859    0.362118
C       0.926608   -0.392264    1.218064
O       1.712901    0.375098    1.697257
C       1.135747   -1.947177    1.413635
C       2.065999   -2.258609    2.490459
C       2.833713   -2.515217    3.374986
C      -0.138980   -2.658295    1.570830
N      -1.154213   -3.197935    1.683697
H       0.632963    1.779486   -0.547976
H      -1.140325    1.751091   -0.578141
H      -0.272501    2.110250    0.927076
H      -1.165022   -0.273125    0.903736
H      -0.259207   -0.611513   -0.540510
H       1.566297   -2.277460    0.454508
H       3.512992   -2.736900    4.161189
