20

C      -0.020049    1.549125   -0.013647
C       0.038927    0.020796   -0.022368
C       0.669359   -0.526309   -1.304314
C       0.908470   -2.026153   -1.192858
O       1.416037   -2.472059   -2.442252
C       1.882844   -2.301056   -0.044840
C       1.541918   -1.586553    1.260170
O       1.960556   -1.971512    2.335987
N       0.785267   -0.451388    1.144226
H       0.985657    1.975357   -0.080573
H      -0.611272    1.912804   -0.859322
H      -0.488229    1.920156    0.904503
H      -0.994541   -0.359108    0.034551
H       0.012395   -0.315227   -2.153036
H       1.627735   -0.028200   -1.496542
H      -0.054256   -2.521075   -0.977666
H       1.611587   -3.411865   -2.368087
H       1.962215   -3.367668    0.184874
H       2.880665   -1.963844   -0.352962
H       0.568018   -0.027450    2.036113
