14

O      -0.088992    1.400822    0.061343
C      -0.045282    0.016825   -0.009248
C      -1.339329   -0.734475    0.037500
C      -0.514163   -0.737066   -1.243187
C      -1.296777    0.088047   -2.213287
O      -1.068184    0.318483   -3.360341
O      -2.419758    0.589904   -1.576775
C      -2.552454    0.063672   -0.298818
N      -3.562505    0.217524    0.430965
H       0.648921    1.761552   -0.443130
H       0.783056   -0.456034    0.516969
H      -1.458157   -1.583723    0.695567
H       0.051116   -1.574756   -1.627907
H      -4.268147    0.790974   -0.033590
