12

N      -0.078464    1.268185    0.620282
C      -0.026235    0.132889    0.042964
C       1.243524   -0.487472   -0.373611
N       1.601258   -1.451851   -1.132347
O       0.759798   -2.280230   -1.865271
N      -0.612724   -2.380275   -1.865547
C      -1.430003   -1.697746   -1.156865
C      -1.338066   -0.585952   -0.173653
O      -2.337955   -0.258397    0.418053
H       0.856363    1.671158    0.732017
H       2.121493    0.001740    0.052815
H      -2.463014   -2.001224   -1.321250
