19

C       0.094374    1.058067   -0.504432
O      -0.177253    0.166888    0.565248
C      -1.337988   -0.569786    0.370860
C      -1.500142   -1.627779   -0.691891
O      -0.265948   -2.284208   -0.957444
C      -0.222563   -2.824394    0.402113
C       1.108330   -2.657362    1.102507
C      -1.461152   -2.006019    0.788892
O      -2.450749   -2.485540    1.624169
H       1.013842    1.589734   -0.249610
H       0.237041    0.512750   -1.445587
H      -0.715645    1.790814   -0.634752
H      -2.268313   -0.017452    0.537917
H      -2.273785   -1.650246   -1.451017
H      -0.512909   -3.882597    0.357478
H       1.391341   -1.606056    1.152280
H       1.041130   -3.059967    2.119591
H       1.886512   -3.217618    0.573956
H      -2.383352   -2.027656    2.469253
