20

C      -0.467530    1.105879   -0.869204
N      -0.005631   -0.248456   -1.094230
C       1.091681   -0.758001   -0.469619
O       1.758900   -0.142890    0.344880
C       1.415962   -2.208150   -0.850256
C       1.454495   -2.489112   -2.346753
C       1.538298   -3.969708   -2.785389
C       0.162487   -3.721598   -3.433746
O       0.150568   -2.347715   -2.983459
H       0.188350    1.557801   -0.124260
H      -0.427299    1.700673   -1.789167
H      -1.497334    1.118503   -0.494139
H      -0.456768   -0.824032   -1.792074
H       2.391595   -2.435226   -0.412311
H       0.676369   -2.870664   -0.382689
H       2.182923   -1.831294   -2.837169
H       2.347896   -4.207710   -3.476011
H       1.544156   -4.687205   -1.962794
H       0.133114   -3.784782   -4.527403
H      -0.676436   -4.293969   -3.021898
