15

C      -0.040243    1.485706    0.010823
C       0.000496   -0.030127    0.002332
O      -1.358695   -0.495350    0.010700
C      -1.525199   -1.824293    0.004881
C      -2.728505   -2.499336    0.010760
N      -2.340806   -3.800496    0.000125
N      -1.011449   -3.933676   -0.009950
N      -0.507973   -2.722734   -0.007896
H       0.978186    1.885020    0.004813
H      -0.566127    1.865615   -0.869704
H      -0.551918    1.856067    0.903702
H       0.510872   -0.418147   -0.886529
H       0.524986   -0.427651    0.878687
H      -3.754541   -2.178854    0.020508
H      -2.916718   -4.627015   -0.000220
