19

C       0.152577    1.562376    0.221449
O       0.607941    0.261412   -0.080787
C       0.773140   -0.548292    1.049554
C      -0.500633   -1.188520    1.692526
C       0.058177   -2.602238    1.388582
C      -0.392998   -3.180249    0.018839
C       0.842798   -2.521675   -0.628592
O       1.302172   -2.540084   -1.731282
C       1.334980   -1.955881    0.713214
H       0.851897    2.088669    0.889780
H       0.084687    2.107955   -0.722176
H      -0.839047    1.553123    0.697963
H       1.392981   -0.035820    1.800705
H      -0.617441   -0.963874    2.755120
H      -1.435391   -0.947322    1.178474
H       0.130781   -3.305329    2.216038
H      -0.334284   -4.272183   -0.048711
H      -1.368588   -2.863855   -0.361848
H       2.374929   -2.153685    0.975040
