16

C       0.024292    1.434216    0.054188
C      -0.070558   -0.052469    0.032276
C      -0.078277   -0.920251   -1.000459
C      -0.020879   -2.295936   -0.354850
C      -0.994215   -2.101718    0.849557
C      -0.017291   -0.956334    1.261440
C       1.098474   -1.935555    0.703997
O       2.206636   -2.258219    0.974142
H       0.942828    1.763696    0.556349
H       0.028999    1.843698   -0.959990
H      -0.811973    1.885498    0.602064
H       0.001263   -0.711622   -2.058189
H      -0.001581   -3.188966   -0.974356
H      -2.005932   -1.783113    0.586430
H      -1.002926   -2.943229    1.549597
H       0.008899   -0.514686    2.255174
