25

C       0.030445    1.845548    0.901940
C      -0.048871    0.375317    0.480044
C       0.618732   -0.600037    1.456866
C       0.454970   -2.058211    1.016977
C       1.062345   -3.063873    1.996865
O       2.019813   -0.309086    1.544593
C       2.479203    0.241306    2.768428
C       3.864379    0.808189    2.491422
O       3.824388    1.761286    1.445661
H       1.067728    2.173546    1.013996
H      -0.446485    2.490705    0.157712
H      -0.479326    2.013110    1.857769
H      -1.098590    0.078937    0.361401
H       0.423301    0.245052   -0.502337
H       0.169125   -0.477602    2.454616
H      -0.614494   -2.261500    0.882587
H       0.922044   -2.172270    0.030611
H       0.941073   -4.089746    1.636216
H       2.131638   -2.875938    2.126978
H       0.584548   -2.999944    2.981278
H       1.813040    1.046716    3.107161
H       2.524187   -0.525790    3.557915
H       4.243397    1.316986    3.383662
H       4.554511   -0.016679    2.253394
H       3.366263    1.318504    0.720880
