20

C       0.054734    1.343289    0.381607
O      -0.048836   -0.060460    0.388280
C      -1.231988   -0.524536   -0.225561
C      -1.207254   -2.030912   -0.211416
C      -1.687912   -2.801217    0.993324
C      -2.455639   -2.880061   -0.300777
C      -3.849413   -2.277876   -0.426263
C      -4.890196   -3.214541    0.003444
N      -5.703618   -3.963376    0.339031
H       0.997007    1.603643    0.869291
H       0.059987    1.749163   -0.642715
H      -0.773115    1.818007    0.932583
H      -2.113650   -0.133407    0.310447
H      -1.294577   -0.147895   -1.262048
H      -0.340439   -2.436921   -0.724926
H      -1.128927   -3.669172    1.322596
H      -2.129777   -2.225623    1.801148
H      -2.346414   -3.800858   -0.865613
H      -3.943361   -1.368828    0.176018
H      -4.056998   -1.990239   -1.464225
