21

C       0.033388    1.498974    0.285499
C      -0.064558    0.046329   -0.193690
C      -1.449376   -0.537362   -0.031859
C      -1.878263   -1.117659    1.290420
C      -1.651013   -2.027451    0.087944
C      -2.847199   -2.623852   -0.646014
O      -3.367083   -1.741405   -1.638260
C      -3.569163   -0.463550   -1.119366
O      -2.363595    0.198308   -0.813030
H       1.042646    1.892841    0.132622
H      -0.668245    2.132641   -0.262626
H      -0.202839    1.579776    1.351842
H       0.212245   -0.015901   -1.253077
H       0.643433   -0.582327    0.358520
H      -1.153586   -1.137617    2.097375
H      -2.903426   -0.976161    1.618145
H      -0.758126   -2.644279    0.098924
H      -2.553234   -3.528858   -1.182592
H      -3.649952   -2.895650    0.058039
H      -4.052480    0.134490   -1.894568
H      -4.220474   -0.510558   -0.226258
