26

C       0.208068    1.383540    0.200879
C       0.031794   -0.090279   -0.178777
C      -1.406130   -0.630053   -0.050992
C      -2.371921    0.076084   -1.013752
C      -1.406655   -2.161041   -0.258340
C      -2.729920   -2.850847    0.012075
C      -2.780622   -4.274682    0.456054
N      -3.213786   -3.208555    1.351095
C      -2.399749   -2.948463    2.528125
H       1.263450    1.671552    0.163244
H      -0.335570    2.051761   -0.473474
H      -0.150928    1.574748    1.218680
H       0.381622   -0.248447   -1.208769
H       0.688453   -0.697244    0.458066
H      -1.744891   -0.430454    0.975888
H      -2.076187   -0.096278   -2.056240
H      -3.397637   -0.283515   -0.894346
H      -2.388120    1.156593   -0.847019
H      -1.121829   -2.376250   -1.298511
H      -0.620739   -2.605978    0.361559
H      -3.542155   -2.514482   -0.630694
H      -3.554281   -4.950426    0.099040
H      -1.824357   -4.755372    0.665811
H      -1.318469   -3.106839    2.391541
H      -2.556351   -1.917118    2.861135
H      -2.731773   -3.614165    3.331784
