12

N       0.194382    1.299380    0.427658
C       0.063073    0.085668    0.133660
O      -1.224279   -0.454106    0.185398
C      -1.507894   -1.503002    0.999888
O      -2.610325   -1.962493    1.060248
C      -0.380580   -2.059325    1.838233
N       0.817183   -2.279233    1.464602
C       1.283897   -1.870890    0.212257
N       1.027666   -0.778470   -0.394582
H       1.151548    1.599707    0.242458
H      -0.687671   -2.379133    2.834035
H       2.018289   -2.547828   -0.220509
