20

O      -0.145704    1.450630   -0.089249
C       0.013748    0.044364    0.055229
C      -1.366665   -0.587393   -0.026544
C      -2.084217   -0.425562   -1.410681
C      -2.376103   -1.907950   -1.718481
C      -2.865382   -2.435220   -0.337784
C      -1.394328   -2.130060    0.072010
C      -1.019982   -2.585195   -1.371542
H       0.726935    1.854166   -0.080994
H       0.668883   -0.359133   -0.732653
H       0.476998   -0.203194    1.024754
H      -1.969920   -0.146415    0.774919
H      -2.993822    0.177026   -1.342348
H      -1.434072    0.039936   -2.157579
H      -2.910013   -2.132185   -2.642798
H      -3.665030   -1.887858    0.171585
H      -3.086172   -3.505226   -0.347021
H      -0.938978   -2.581416    0.955285
H      -1.052647   -3.671860   -1.481641
H      -0.109543   -2.193112   -1.833957
