18

C       0.123097    1.286714    0.273214
O      -0.333842    0.029239   -0.176252
C       0.452711   -0.511105   -1.179367
C       1.739005   -1.333646   -0.824304
N       0.812560   -2.363145   -0.211090
C       0.175764   -1.986680   -1.535832
C       1.589998   -2.033310   -2.221829
C       1.870719   -1.344069   -3.465355
C       2.116757   -0.788646   -4.503973
H       1.108780    1.215572    0.755794
H       0.192626    2.013237   -0.551568
H      -0.601860    1.650035    1.004693
H       0.564678    0.176031   -2.026370
H       2.663257   -1.015221   -0.340740
H       1.240353   -3.291321   -0.297264
H      -0.752783   -2.436013   -1.889237
H       2.011343   -3.043096   -2.223960
H       2.330755   -0.295908   -5.420111
