19

C      -0.111699    1.555216    0.004643
C       0.043938    0.033653   -0.005257
N       0.704127   -0.454635   -1.211189
C       0.036859   -0.676234   -2.409978
N      -1.209361   -0.456843   -2.531893
C       1.055196   -1.192819   -3.421539
C       2.390926   -1.230669   -2.661804
C       2.059748   -0.745014   -1.252809
O       2.820024   -0.627423   -0.321002
H       0.864737    2.045895   -0.043081
H      -0.719004    1.885241   -0.841572
H      -0.607117    1.871585    0.927577
H       0.657904   -0.298305    0.834948
H      -0.934640   -0.449712    0.045764
H      -1.521648   -0.686372   -3.474485
H       0.744183   -2.178050   -3.779803
H       1.078545   -0.528090   -4.289358
H       2.828624   -2.229914   -2.596543
H       3.154484   -0.576065   -3.089723
