21

C      -0.075324    1.571259    0.204379
C       1.454743    1.442686    0.030776
C       1.814708    0.595946    1.283141
C       0.647924   -0.466868    1.249307
C      -0.035279    0.020210   -0.029657
C      -1.144133   -0.611155   -0.861126
C      -0.766017   -0.116193   -2.253709
C       0.459397    0.421108   -2.308847
C       1.173063    0.296526   -0.988577
H      -0.449034    1.922723    1.171331
H      -0.564653    2.107221   -0.608141
H       2.099201    2.296720   -0.184045
H       2.800262    0.127563    1.199329
H       1.806255    1.198626    2.195907
H       1.019530   -1.492741    1.165978
H       0.007153   -0.410778    2.134624
H      -1.141537   -1.710101   -0.816767
H      -2.147678   -0.286916   -0.558944
H      -1.440928   -0.203537   -3.099616
H       0.919932    0.809052   -3.211532
H       1.968698   -0.460174   -1.045447
