16

N       0.039683    0.718225    1.242609
C       0.002314   -0.002638    0.198238
O       1.065036   -0.808410   -0.151400
C       1.477306   -0.834404   -1.513380
C       0.650713   -1.744441   -2.426365
O       1.047681   -2.028100   -3.526830
C      -0.681378   -2.215274   -1.853700
C      -1.540540   -1.030112   -1.484877
C      -1.217626   -0.063529   -0.618128
H       0.952771    0.629380    1.693201
H       1.487885    0.174347   -1.945608
H       2.505671   -1.204014   -1.515461
H      -1.167170   -2.850044   -2.595208
H      -0.465405   -2.818805   -0.962712
H      -2.498025   -0.961524   -1.992635
H      -1.919916    0.735032   -0.407446
