16

C      -0.234965    1.341042   -0.088456
O       0.289492    0.036134    0.121251
C       0.776773   -0.551213   -1.043316
C       1.267173   -2.007001   -0.834266
N       0.272354   -2.440326   -1.838209
C      -0.000905   -3.695297   -2.355475
O      -0.851565   -3.935573   -3.169987
C      -0.279103   -1.151082   -2.020026
O      -1.204582   -0.745846   -2.654085
H       0.539873    2.020199   -0.474255
H      -1.076827    1.327941   -0.789984
H      -0.574892    1.701313    0.884126
H       1.501239    0.094750   -1.562225
H       2.302461   -2.208939   -1.116630
H       1.060130   -2.374662    0.173041
H       0.673917   -4.461258   -1.922397
