17

O       0.061865    0.080155    0.407785
C      -0.010894    1.256503    0.209489
C      -1.206046    2.259571    0.027169
C      -0.130356    3.370285   -0.279271
C       0.984585    2.358174    0.024454
C       2.242000    2.521388    0.855534
C       2.353485    2.193916   -0.597520
C      -2.189478    1.952130   -0.984399
C      -2.983087    1.685638   -1.847638
H      -1.685907    2.421097    0.999851
H      -0.159470    3.704740   -1.317579
H      -0.181775    4.236505    0.382958
H       2.482562    3.528509    1.179477
H       2.451757    1.741381    1.579717
H       2.636122    1.185301   -0.879754
H       2.674904    2.972329   -1.281214
H      -3.690633    1.447111   -2.602467
