22

C      -0.257225    1.498885    0.024837
C       0.027729   -0.009739    0.034720
C       0.781018   -0.471011   -1.181423
C       0.144732   -0.843783   -2.496147
C       0.967390   -1.871881   -1.755338
C       2.493311   -1.603008   -1.882586
C       2.320424   -0.234986   -1.345438
N       2.722883   -0.431463   -2.751856
C       4.137725   -0.159975   -2.983337
H       0.671986    2.076282   -0.031197
H      -0.869079    1.775241   -0.839699
H      -0.787499    1.808160    0.931031
H       0.595643   -0.268490    0.939467
H      -0.916984   -0.563756    0.100069
H      -0.927329   -1.010569   -2.438018
H       0.501771   -0.427286   -3.428894
H       0.555500   -2.806297   -1.394851
H       3.283619   -2.322853   -1.710084
H       2.945798    0.331617   -0.665622
H       4.789414   -0.415205   -2.129606
H       4.475078   -0.733612   -3.852533
H       4.266916    0.904616   -3.203412
