16

C      -0.057197    1.531503   -0.000567
C       0.042740    0.024593    0.001659
C       1.340408   -0.672707   -0.217953
C       0.721651   -0.688071    1.173763
N       1.311321    0.031934    2.264359
C       1.091875   -0.699247    3.280125
O       0.414669   -1.878767    3.097788
C       0.138578   -1.939426    1.723786
O      -0.448170   -2.847253    1.218942
H       0.838047    1.985469    0.429939
H      -0.175480    1.899657   -1.025005
H      -0.919718    1.870342    0.581521
H      -0.835295   -0.510955   -0.350388
H       1.348591   -1.621370   -0.743085
H       2.237004   -0.069708   -0.308958
H       1.386401   -0.493512    4.301033
