25

C       0.131010    1.453234    0.229480
C      -0.422425    0.131715   -0.321805
C       0.496162   -0.510509   -1.349942
C       0.575710    0.201016   -2.687322
O       1.775886   -0.940862   -0.840270
C       0.861459   -1.942024   -1.303566
C       0.382330   -2.975991   -0.305277
C      -0.847043   -3.714330   -0.853743
C       1.527710   -3.945408    0.024520
H       1.120969    1.295087    0.666945
H       0.223577    2.216817   -0.548865
H      -0.527152    1.853225    1.006465
H      -0.585689   -0.555858    0.511751
H      -1.402553    0.300060   -0.786199
H       0.907513    1.236834   -2.564676
H       1.285603   -0.302334   -3.348035
H      -0.404464    0.218462   -3.176494
H       1.158370   -2.386154   -2.260251
H       0.103052   -2.462954    0.620979
H      -1.190099   -4.477940   -0.148619
H      -1.678950   -3.027579   -1.040296
H      -0.612689   -4.219383   -1.798396
H       2.396232   -3.401939    0.407039
H       1.217502   -4.675345    0.779090
H       1.841461   -4.500303   -0.867669
