14

C       0.023545    1.394116    0.067884
N       0.010787   -0.052178   -0.015149
C      -0.156790   -0.799476   -1.136559
C      -0.092196   -2.119117   -0.702858
N      -0.144734   -3.448430   -1.053233
N       0.015907   -4.141923    0.023085
N       0.177572   -3.300963    1.104715
C       0.114903   -2.012747    0.683719
N       0.183151   -0.765363    1.139561
H       0.982175    1.736491    0.465493
H      -0.126041    1.807203   -0.930348
H      -0.776215    1.736781    0.729120
H      -0.300657   -0.340392   -2.100255
H       0.313687   -3.701702    2.016477
