23

C       0.153666    1.388366   -0.552233
C       1.432823    1.602861    0.301131
C       1.318588    0.144023    0.799558
C      -0.163660    0.125581    0.293495
C       2.242899   -0.838744    0.072396
C       2.057231   -2.270714    0.594375
C       2.189034   -2.288735    2.122926
C       1.259239   -1.238456    2.732069
O       1.504430    0.056088    2.202821
H      -0.588345    2.189003   -0.544184
H       0.382660    1.144325   -1.592843
H       2.356265    1.881159   -0.213795
H       1.263708    2.291598    1.132315
H      -0.847096    0.348272    1.117234
H      -0.518276   -0.763522   -0.234323
H       2.065866   -0.790492   -1.008168
H       3.278538   -0.517368    0.243981
H       1.062585   -2.641327    0.311665
H       2.784486   -2.945157    0.130014
H       1.949759   -3.277607    2.530793
H       3.222329   -2.056778    2.409808
H       0.208253   -1.526153    2.558002
H       1.404180   -1.153444    3.813175
