16

O      -0.087309    1.320552   -0.111428
C       0.012926   -0.059761   -0.062185
C       0.575085   -0.907836   -1.274049
C      -0.225892   -2.006879   -0.570954
C       0.431908   -2.762703    0.331061
C       0.245168   -2.181118    1.730448
C      -0.289706   -0.792884    1.332382
C      -1.142466   -0.979048    0.123775
H       0.757624    1.693173    0.163638
H       0.150844   -0.486932   -2.192968
H       1.651788   -1.068357   -1.386776
H       1.338467   -3.307835    0.082830
H      -0.455117   -2.692929    2.407346
H       1.219156   -2.167375    2.235908
H      -0.585492   -0.071764    2.091913
H      -2.203533   -0.821511   -0.019567
