21

C       0.180752    1.468152    0.292052
C       0.166485   -0.022942    0.029624
C       0.696445   -0.617105   -1.270520
C       1.270405    0.234142   -2.383651
C       1.447261   -0.835510    0.011135
O       2.678144   -0.184615    0.135303
C       3.112997   -0.051987    1.468840
C       4.477059    0.614564    1.453341
O       5.085724    0.911018    2.446505
H       1.139618    1.917099    0.024465
H      -0.600108    1.978907   -0.281737
H      -0.000665    1.678903    1.351639
H      -0.695405   -0.536580    0.448762
H       0.152365   -1.488624   -1.626064
H       1.915640    1.026341   -2.001363
H       1.874038   -0.379298   -3.060860
H       0.472586    0.695703   -2.975307
H       1.439489   -1.828926    0.462514
H       2.422279    0.551984    2.076346
H       3.207218   -1.032912    1.964637
H       4.868541    0.802709    0.429127
