14

N       0.009627    1.361903    0.009659
C       1.169954    2.050174    0.002169
N       2.363996    1.506730   -0.012428
C       2.437718    0.147974   -0.020624
C       1.326251   -0.655339   -0.014216
C       1.016404   -2.046299   -0.018742
N      -0.293914   -2.239653   -0.007251
C      -0.926701   -1.008125    0.005686
C       0.013286   -0.012565    0.002066
H      -0.863704    1.871307    0.020930
H       1.076541    3.131589    0.009011
H       3.444223   -0.263145   -0.032605
H       1.714493   -2.872666   -0.029994
H      -2.004370   -0.937201    0.016498
