17

C       0.000192    1.504645    0.091871
O       1.332620    1.531519   -0.467679
C       1.425123    0.089467   -0.500883
C      -0.020542   -0.015247   -0.027716
O      -0.497559   -0.911523    0.965473
C      -1.083346   -0.959747   -0.327521
C      -2.566016   -0.775933   -0.631988
O      -2.515847   -1.888625   -1.553174
C      -1.141156   -2.191179   -1.224753
H      -0.030579    1.873202    1.125013
H      -0.718926    2.062417   -0.520232
H       1.649272   -0.289574   -1.505371
H       2.159913   -0.302301    0.213796
H      -3.226070   -0.966585    0.223666
H      -2.861368    0.158419   -1.124598
H      -0.493317   -2.193660   -2.109744
H      -1.035654   -3.142217   -0.687576
