13

O      -0.030677    0.013358    0.044789
C      -0.011161    1.204249    0.109077
C      -1.073364    2.315854    0.009851
N       0.007978    3.343682   -0.191508
C       0.779945    3.313229    1.035994
C       1.088867    2.242600    0.023990
C       2.321970    2.135738   -0.670037
C       3.365754    2.002661   -1.252173
H      -1.676876    2.199923   -0.893921
H      -1.722438    2.505820    0.869280
H       1.524095    4.099603    1.113865
H       0.294953    3.040015    1.971791
H       4.283942    1.887736   -1.773557
