15

O       0.110001    1.377532   -0.091372
C       0.001681   -0.013269   -0.027991
C       0.302639   -0.621973    1.349892
O      -0.675611   -0.026854    2.177396
C      -1.896469   -0.036980    1.390917
C      -1.437132   -0.612904    0.028801
C      -1.079528   -2.064828    0.311104
O      -1.571547   -3.087384   -0.052822
O       0.010446   -2.012270    1.161336
H      -0.100126    1.728985    0.782894
H       0.605088   -0.440237   -0.830903
H       1.284897   -0.512635    1.802603
H      -2.648840   -0.650830    1.892176
H      -2.273990    0.985178    1.290118
H      -2.110131   -0.460833   -0.809855
