20

C       0.378650    1.457188    0.022363
C       0.006634   -0.027309   -0.022040
C       0.873288   -0.841026   -1.029509
C       1.815915   -1.236486    0.140563
C       0.669941   -0.866628    1.115395
O       0.928862   -0.286894    2.365688
N      -1.437806   -0.200806   -0.111004
C      -2.163780    0.096757   -1.218099
O      -1.700611    0.494488   -2.268411
H       1.464781    1.598670    0.049411
H      -0.001145    1.951687   -0.874171
H      -0.055178    1.938467    0.904632
H       0.323069   -1.696108   -1.425645
H       1.299354   -0.279674   -1.860819
H       2.196448   -2.258508    0.179502
H       2.661976   -0.548015    0.237758
H       0.050871   -1.746924    1.320497
H       1.548593    0.439162    2.239381
H      -1.933979   -0.461941    0.727739
H      -3.248031   -0.078808   -1.063472
