20

C       0.122056    1.623456    0.033155
C      -0.134961    0.114406   -0.045806
C       0.613055   -0.546618   -1.194299
N       2.082304   -0.630886   -1.037837
C       2.173331   -1.974789   -1.287512
O       3.093759   -2.732184   -1.458594
C       0.624698   -2.108826   -1.349849
C      -0.022248   -2.960776   -0.270589
O       0.182783   -2.476047   -2.644414
H       1.182313    1.836522    0.208322
H      -0.171472    2.125646   -0.895163
H      -0.443284    2.077408    0.852096
H       0.151958   -0.357600    0.900124
H      -1.207711   -0.069982   -0.183425
H       0.325284   -0.094255   -2.150476
H       2.793160    0.084009   -1.104691
H       0.294682   -2.662651    0.732547
H      -1.112436   -2.894529   -0.334685
H       0.267101   -4.007238   -0.412593
H       0.651666   -3.284013   -2.885893
