20

C      -0.094702    1.591160    0.054515
C      -0.050342    0.075055    0.054926
C       1.138688   -0.638597   -0.657819
O       2.041955   -0.163768    0.422559
C       0.821302   -0.651036    1.122529
C       0.857476   -1.880899    0.206586
C       0.122646   -3.145657    0.012657
N       1.556138   -3.109948    0.374860
C       2.516357   -3.499261   -0.649323
H       0.900960    2.002431    0.231599
H      -0.464751    1.969306   -0.904539
H      -0.769553    1.959682    0.834544
H      -1.030531   -0.379658   -0.122636
H       1.490760   -0.544923   -1.685419
H       0.803341   -0.586174    2.210278
H      -0.546581   -3.542154    0.771823
H      -0.133576   -3.420344   -1.010903
H       2.199558   -3.231669   -1.671068
H       3.470949   -3.006213   -0.444879
H       2.668091   -4.582089   -0.609864
