19

C      -0.164889    1.581505    0.003210
C      -0.004883    0.055473   -0.045471
C       0.780391   -0.421672   -1.276593
O       2.189203   -0.305770   -1.091978
C       2.605515   -0.756621    0.162344
C       1.691847   -1.680221    1.034729
O       2.444017   -1.220367    2.212615
C       2.172360    0.009172    1.445173
C       0.716654   -0.474817    1.198346
H       0.808857    2.077851   -0.063491
H      -0.778970    1.938039   -0.829934
H      -0.643238    1.902646    0.934192
H      -1.001538   -0.401434   -0.095068
H       0.532168   -1.474541   -1.481625
H       0.538414    0.162523   -2.168803
H       3.658957   -1.035910    0.121652
H       1.482862   -2.748229    0.962818
H       2.534228    0.952211    1.855115
H       0.106217   -0.511400    2.103662
