18

C      -0.007469    1.456363   -0.062195
C      -0.044186   -0.045315    0.062124
C      -0.838605   -0.688865    1.161487
C       0.699210   -0.735903    1.186242
C       1.366868   -2.005886    0.824053
C       1.101913   -2.617119   -0.331039
C       0.136694   -2.022042   -1.319452
O       0.029357   -0.607086   -1.221184
H       0.904475    1.772804   -0.577724
H      -0.866305    1.814003   -0.639433
H      -0.032826    1.928257    0.923531
H      -1.340379   -0.040802    1.872318
H      -1.345260   -1.629018    0.975965
H       1.196280   -0.115025    1.924545
H       2.084229   -2.424918    1.523780
H       1.574547   -3.556960   -0.598343
H       0.470194   -2.212376   -2.345551
H      -0.860193   -2.487411   -1.224958
