15

O       0.044655   -0.096811   -0.170507
C       0.004143    1.089505    0.024156
C       1.204501    1.999449    0.048691
C       1.019041    3.273930   -0.838278
C       0.670888    4.099175    0.440066
C       1.236267    2.929565    1.305379
C       1.276411    5.411105    0.589445
N       1.779868    6.445657    0.704595
H      -0.970599    1.605315    0.205787
H       2.099150    1.405106   -0.137453
H       1.961842    3.589089   -1.286859
H       0.250934    3.240511   -1.613645
H      -0.411122    4.194745    0.565073
H       0.633967    2.633239    2.166615
H       2.258017    3.119536    1.636073
