17

N       0.213544    1.403608    0.021218
C       0.046056   -0.019696    0.012439
C      -0.524133   -0.724111    1.244157
C      -1.027005    0.052354    2.336075
N      -1.444609    0.681455    3.213288
C      -1.294094   -0.689000   -0.099494
O      -2.370157    0.181545   -0.187647
C      -1.493293   -1.985669   -0.836261
O      -2.640508   -2.602955   -0.262147
H       0.213667    1.751642   -0.933501
H      -0.574352    1.845282    0.486585
H       0.884730   -0.540464   -0.442422
H      -0.064319   -1.662903    1.533241
H      -3.147565   -0.309153    0.109592
H      -1.652118   -1.767118   -1.902453
H      -0.600371   -2.622404   -0.744992
H      -2.957116   -3.286307   -0.859849
