18

O      -0.010672    1.463004    0.018871
C      -0.030306    0.052325    0.032579
C      -1.446249   -0.528509    0.023886
C      -1.372116   -2.044751    0.200857
N      -0.470874   -2.634679   -0.786027
C       0.486013   -1.985224   -1.494503
O       1.092666   -2.498743   -2.422903
C       0.774380   -0.517675   -1.144215
O       0.443721    0.256706   -2.293661
H      -0.048173    1.723539   -0.910557
H       0.464188   -0.256210    0.963701
H      -2.032607   -0.086119    0.833331
H      -1.933793   -0.281920   -0.926106
H      -1.034971   -2.286466    1.219349
H      -2.360643   -2.497223    0.075394
H      -0.625088   -3.590316   -1.075008
H       1.851139   -0.442128   -0.935903
H       0.814845   -0.214971   -3.050378
