21

C       0.335884    1.696820   -0.494575
C       0.806868    0.479756   -1.293620
C       0.309012   -0.841760   -0.701321
N       0.843926   -1.973002   -1.454468
C       0.093712   -2.924032   -1.761512
O      -1.255210   -3.136942   -1.503022
C      -1.278633   -4.314113   -2.365290
C       0.249104   -4.204406   -2.582348
N       0.728871   -4.171177   -3.946560
H      -0.757954    1.751980   -0.458593
H       0.697411    1.657544    0.539243
H       0.700396    2.628324   -0.938154
H       0.459460    0.554956   -2.331491
H       1.901617    0.451313   -1.337287
H       0.666330   -0.926032    0.334486
H      -0.789268   -0.849118   -0.661559
H      -1.651136   -5.191150   -1.831603
H      -1.874080   -4.133205   -3.265060
H       0.802000   -4.972156   -2.033762
H       0.385263   -3.337801   -4.416686
H       1.741529   -4.097303   -3.950586
