19

O      -0.106186    1.459239    0.120163
C      -0.113365    0.055735    0.268946
C      -1.501110   -0.566014   -0.027612
C      -1.924231   -0.206734   -1.382938
C      -2.208748    0.072552   -2.518986
C      -1.479661   -2.086266    0.132781
O      -0.625616   -2.740073   -0.765688
C      -1.526545   -2.689975    1.501045
C      -2.723142   -2.813845    0.574154
H      -0.345377    1.650742   -0.794250
H       0.633967   -0.436244   -0.367632
H       0.145079   -0.147425    1.312074
H      -2.216724   -0.143130    0.688063
H      -2.494674    0.327691   -3.509882
H      -0.965020   -2.570645   -1.653777
H      -0.921322   -3.574996    1.657665
H      -1.602828   -2.030797    2.359097
H      -3.616331   -2.240951    0.799184
H      -2.900079   -3.784070    0.124487
