18

C      -0.007956    1.558280   -0.189860
C      -0.045121    0.064428    0.000473
O       1.224383   -0.633585   -0.102578
C       0.568903   -0.609984    1.137520
C       1.116559   -0.197114    2.490176
C      -0.105439   -0.823285    3.236982
C       0.858077   -1.619819    4.107606
N       1.595195   -1.659188    2.771037
C       0.217884   -1.775143    2.040145
H       0.822441    2.001650    0.365401
H       0.115262    1.807482   -1.248841
H      -0.943419    2.012121    0.155229
H      -0.857709   -0.452909   -0.512954
H       1.727991    0.652569    2.794146
H      -1.062521   -0.345004    3.470613
H       1.406816   -1.089542    4.892532
H       0.542949   -2.606996    4.460521
H      -0.213142   -2.751832    1.819728
