19

C       0.241252    1.469395   -0.057067
O       1.199842    0.435069   -0.251767
C      -0.163819    0.051493   -0.009612
C      -0.452072   -0.685157    1.245705
C      -1.445664   -1.575785    1.300528
C      -1.766035   -2.364279    2.539332
O      -0.770925   -2.274522    3.538156
C      -0.302928   -0.949044    3.718227
C       0.406660   -0.435557    2.464182
H       0.344314    2.040965    0.863485
H      -0.003547    2.058002   -0.940807
H      -0.675357   -0.337730   -0.890939
H      -2.075107   -1.760653    0.432600
H      -2.747797   -2.045423    2.938985
H      -1.859033   -3.430063    2.297600
H      -1.141044   -0.278818    3.973405
H       0.376771   -0.979312    4.574197
H       1.375908   -0.933002    2.341323
H       0.624993    0.632397    2.581208
