17

C       0.090442    1.497201    0.120228
C      -0.071295    0.026653    0.083605
C      -1.091141   -0.833377    0.021117
C      -2.465984   -1.287234   -0.435891
C      -1.767221   -2.675015   -0.705091
N      -0.582298   -2.137358    0.000954
C       0.791767   -2.090098   -0.113501
N       1.599952   -3.039507   -0.329500
O       1.107432   -0.748338    0.108693
H       0.719881    1.849317   -0.705235
H      -0.887068    1.979560    0.042493
H       0.560630    1.829754    1.053493
H      -3.226879   -1.325143    0.346812
H      -2.871222   -0.779532   -1.311899
H      -2.206939   -3.553611   -0.230179
H      -1.578124   -2.875232   -1.763802
H       2.556983   -2.695869   -0.352597
