20

C       0.836272    0.273387    0.387902
O       1.189032    0.119420   -0.976221
C       0.151710   -0.431915   -1.762578
C       0.085945   -1.966204   -1.742322
O      -0.904641   -2.565843   -2.120348
N       1.226893   -2.566818   -1.312350
C       1.352615   -4.012883   -1.200072
C       1.800558   -4.661101   -2.512732
O       3.064115   -4.184219   -2.944584
H      -0.022142    0.950457    0.501321
H       0.587783   -0.687836    0.859900
H       1.700763    0.706712    0.895819
H      -0.836148   -0.052775   -1.471715
H       0.334078   -0.119766   -2.797098
H       1.974836   -1.961409   -1.012334
H       2.082696   -4.231029   -0.415057
H       0.380189   -4.419410   -0.904653
H       1.911228   -5.740133   -2.362982
H       1.024578   -4.502690   -3.274393
H       2.949082   -3.258242   -3.181927
