21

C       0.470592   -0.601221    1.617127
C      -0.010535   -0.267310    0.201517
C      -1.463698   -0.676884   -0.101647
C      -1.813862   -0.593318   -1.610835
O      -1.874612   -2.029704   -1.717318
C      -1.679890   -2.199399   -0.301963
C      -2.415232    0.111998    0.794545
C      -3.124668   -0.601200    1.929615
O      -2.580056    1.293456    0.585066
H       1.526231   -0.340062    1.735046
H      -0.089597   -0.047233    2.377355
H       0.370971   -1.670277    1.837026
H       0.072557    0.810882    0.023966
H       0.636143   -0.762834   -0.532821
H      -2.773995   -0.115571   -1.838467
H      -1.037349   -0.161967   -2.253547
H      -0.814832   -2.836457   -0.078486
H      -2.565822   -2.629809    0.181929
H      -2.446766   -1.266697    2.473459
H      -3.559097    0.135897    2.606256
H      -3.930338   -1.226697    1.527162
