20

C      -0.420391    1.551268    0.317003
C      -0.136488    0.058021    0.231226
C       0.276598   -0.509757   -1.132916
N       1.570484    0.103791   -1.481503
C       1.544750   -1.080580   -0.568587
C       2.235072   -2.280759   -0.885113
C       2.830393   -3.299896   -1.124648
C       1.211169   -0.528337    0.834220
C       2.230289    0.397538    1.481016
H       0.376697    2.127835   -0.157663
H      -1.362194    1.794921   -0.187352
H      -0.510710    1.877678    1.358436
H      -0.981252   -0.510411    0.631759
H      -0.364420   -0.925809   -1.901541
H       1.837755   -0.242445   -2.402542
H       3.351648   -4.199527   -1.339512
H       0.973732   -1.359038    1.504454
H       2.544466    1.180717    0.787406
H       1.816906    0.872640    2.377019
H       3.119819   -0.164965    1.784604
