23

C      -1.361612    1.793991    1.123183
C      -1.223380    0.281474    1.307396
C      -1.476393   -0.515355    0.024307
O      -0.566628   -0.111259   -1.026036
C      -1.401332   -2.014036    0.252374
C      -2.613986   -2.932665    0.125598
C      -4.006066   -2.420778   -0.172919
C      -1.548917   -2.931275   -0.942347
O      -1.851013   -2.356449   -2.177670
H      -1.127547    2.328305    2.048687
H      -0.688949    2.150922    0.338981
H      -2.382863    2.062496    0.831485
H      -0.217071    0.036229    1.677836
H      -1.922261   -0.076895    2.073467
H      -2.456240   -0.239572   -0.374573
H       0.320281   -0.374570   -0.753585
H      -0.662856   -2.307747    0.996489
H      -2.587097   -3.786869    0.797244
H      -4.006579   -1.768387   -1.048408
H      -4.672076   -3.260496   -0.397120
H      -4.434337   -1.876067    0.675798
H      -0.889566   -3.797041   -1.003906
H      -1.311192   -1.554764   -2.245113
