16

C      -0.095945    1.538318   -0.052536
C      -0.027406    0.028430    0.019138
C      -1.234679   -0.698785   -0.537481
N       1.305978   -0.537563   -0.227013
C       0.723989   -0.635682    1.139218
C       1.369689    0.088260    2.198745
C       1.884205    0.680533    3.110215
H       0.807960    1.987215    0.361610
H      -0.197545    1.863470   -1.093808
H      -0.959865    1.914314    0.506085
H      -1.353763   -0.482250   -1.605574
H      -1.140343   -1.783385   -0.419788
H      -2.153827   -0.383455   -0.032172
H       1.228221   -1.445296   -0.681502
H       0.343145   -1.610486    1.438918
H       2.347483    1.206078    3.908013
