10

F       0.021497    0.111633    0.003178
C      -0.066879    1.416809    0.011390
N      -1.227320    1.950477    0.030179
C      -1.254347    3.342320    0.037979
N      -2.256859    4.115079    0.055900
N       0.032178    3.929482    0.023445
N       1.182845    3.293017    0.004232
N       1.184864    2.013170   -0.002634
H      -3.115012    3.566682    0.064774
H       0.098188    4.939304    0.027941
