15

O       0.437059    1.624858    0.310566
C       0.214075    0.438116   -0.397584
C       1.263533    0.326468   -1.522207
O       1.084438   -0.857095   -2.314051
C       0.192822   -0.795307   -3.319567
N      -0.523290    0.217387   -3.561661
C       0.279019   -0.755580    0.532696
O       0.475986   -0.617223    1.717230
H       0.569465    1.353741    1.233546
H      -0.781018    0.439012   -0.871572
H       1.193651    1.216899   -2.149329
H       2.265119    0.247975   -1.093771
H       0.207547   -1.745225   -3.861851
H      -1.115554    0.055597   -4.372435
H       0.142031   -1.753123    0.074572
