17

N      -0.042644    1.412608   -0.171364
C      -0.024904    0.012972   -0.070708
C      -1.105721   -0.849427    0.049792
N      -0.556541   -2.093994    0.226187
N       0.779959   -2.098402    0.205514
C       1.114023   -0.821028    0.030916
C      -2.564051   -0.621217    0.050400
C      -3.196650    0.182383   -1.032955
N      -3.420028   -1.268498   -0.975729
H       0.668915    1.771205   -0.795138
H      -0.946666    1.772356   -0.448555
H      -1.051284   -2.959903    0.358841
H       2.154893   -0.535319   -0.017183
H      -3.048683   -0.598730    1.025526
H      -4.068516    0.790225   -0.810218
H      -2.553852    0.573065   -1.817256
H      -2.819055   -1.717722   -1.663860
