18

C       0.032173    1.252418   -0.269476
O      -0.059275   -0.144429   -0.030321
C       0.635227   -0.585563    1.112297
C       0.200413   -1.972546    1.522883
C       0.527661   -3.074707    0.584469
N       1.372441   -2.859177    1.765332
C       2.587254   -2.093976    1.460364
C       2.161585   -0.747018    0.870549
O       2.868237    0.049749    0.311348
H       1.059969    1.564115   -0.477869
H      -0.597440    1.459660   -1.137769
H      -0.348478    1.824946    0.590850
H       0.496589    0.125126    1.946183
H      -0.623524   -2.075343    2.220882
H      -0.059055   -3.987498    0.603405
H       0.918037   -2.805261   -0.395404
H       3.145562   -1.912444    2.388152
H       3.252437   -2.631833    0.778218
