18

C       0.048214    1.565609   -0.452362
N      -0.012883    0.157792   -0.074058
C       1.196129   -0.649910   -0.166226
C       0.607335   -0.308627    1.160154
C       1.309736    0.582844    2.162224
C       0.480924    1.181609    3.260531
N       1.421099    0.106321    3.560811
C       2.485839    1.302274    1.717665
N       3.415291    1.881173    1.346001
H       1.015883    2.050797   -0.267410
H      -0.170220    1.640364   -1.521679
H      -0.728168    2.115965    0.088237
H       1.079024   -1.647537   -0.581586
H       2.127975   -0.150570   -0.428272
H       0.009044   -1.062036    1.675555
H       0.748014    2.152111    3.666205
H      -0.584178    0.966861    3.226990
H       0.941485   -0.787423    3.647327
