19

O       0.439452    0.980759   -0.680961
C      -0.395541    0.589096    0.387995
C      -1.400440   -0.465157   -0.081407
O      -2.296016   -0.848245    0.940561
C      -3.572705   -0.291673    0.686959
C      -3.852356    1.121757    1.276496
C      -3.753479    1.733523   -0.154520
C      -3.480691    0.315585   -0.737093
O      -2.161415    0.042074   -1.174443
H      -0.150152    1.198742   -1.413187
H       0.244542    0.160933    1.165618
H      -0.937126    1.441198    0.828024
H      -0.861442   -1.353228   -0.436999
H      -4.326597   -1.056309    0.887120
H      -4.835608    1.218230    1.742496
H      -3.095275    1.450315    1.990796
H      -4.677136    2.189536   -0.518173
H      -2.933301    2.435138   -0.318291
H      -4.174715   -0.032732   -1.505175
