19

C       0.086690    1.531849    0.019185
C       0.065224    0.002134   -0.028464
C      -1.364144   -0.551323    0.031284
N      -1.417728   -2.015230    0.021540
C      -1.361338   -2.706933    1.298814
C      -1.472471   -2.631270   -1.185968
O      -1.478997   -2.065015   -2.263126
C      -1.537101   -4.108179   -1.145929
N      -1.588262   -5.261662   -1.200133
H       1.111319    1.910775   -0.029536
H      -0.467697    1.961844   -0.821716
H      -0.364311    1.909663    0.943621
H       0.532686   -0.352863   -0.952857
H       0.653221   -0.404509    0.803614
H      -1.871176   -0.210685    0.941015
H      -1.933944   -0.196019   -0.830542
H      -1.368797   -3.786244    1.146623
H      -0.447344   -2.440541    1.841065
H      -2.223431   -2.435091    1.918543
