14

C       0.081696   -1.137890   -0.023956
C       0.025538    0.061850    0.005081
C      -0.074444    1.485353    0.034152
C      -0.681846    2.427828    1.113432
C       0.036205    3.285214    0.050160
O       1.156315    2.324335    0.060700
C      -0.649412    2.449397   -1.070953
C      -0.023863    2.425778   -2.379511
N       0.432158    2.415009   -3.441079
H       0.140195   -2.198598   -0.054035
H      -1.769415    2.483664    1.193855
H      -0.175328    2.380110    2.076043
H       0.278851    4.345083    0.043058
H      -1.737747    2.506554   -1.144123
