20

C      -0.059082    1.592589    0.012761
C      -0.101300    0.063737    0.094752
C       0.770671   -0.515658    1.236480
C       0.101859   -0.155436    2.555840
O       0.357092    0.824845    3.203174
C       0.947416   -2.054843    1.110345
C       1.813569   -2.481043   -0.092579
C       1.527272   -2.603183    2.344173
N       1.992743   -3.028963    3.312777
H       0.953951    1.943825   -0.208547
H      -0.720022    1.951079   -0.781637
H      -0.370074    2.057618    0.951775
H      -1.136758   -0.278016    0.232009
H       0.231882   -0.358475   -0.858459
H       1.754953   -0.035006    1.224966
H      -0.708379   -0.856341    2.868151
H      -0.048408   -2.506377    1.003563
H       1.354124   -2.170468   -1.032874
H       2.810026   -2.035601   -0.026849
H       1.927664   -3.567427   -0.113615
