21

C      -0.342335    1.523835   -0.085666
C      -0.031650    0.045691    0.012745
C       1.307006   -0.573718   -0.341469
C       2.549195    0.258055   -0.648346
C       3.613283    0.161192    0.463181
C       3.039423    0.483268    1.826786
O       2.037456    1.508513    1.862109
C       1.631516    0.154653    2.116499
C       0.819038   -0.587124    1.095996
H       0.488415    2.144633    0.246258
H      -0.595382    1.793057   -1.117803
H      -1.207115    1.771801    0.539829
H      -0.876772   -0.578366   -0.270716
H       1.261129   -1.523812   -0.865557
H       2.987666   -0.077387   -1.593013
H       2.288219    1.310616   -0.786607
H       4.039123   -0.850867    0.504451
H       4.444521    0.841451    0.242559
H       3.749204    0.526245    2.653309
H       1.343748   -0.017882    3.153682
H       0.457710   -1.534483    1.488179
