22

C      -0.452114    1.097672   -0.193644
N       0.070806   -0.253516   -0.000825
C       1.448575   -0.512214   -0.411606
C       1.070302   -0.529184    1.027976
C       1.626818    0.485685    2.015314
C       0.622914    0.829609    3.108716
C       3.054803    0.122629    2.512824
C       3.489816    1.409679    1.789645
O       2.137357    1.694484    1.377084
H       0.273341    1.897791   -0.004365
H      -0.805709    1.179601   -1.226798
H      -1.317238    1.242944    0.462219
H       1.620690   -1.437334   -0.956895
H       2.040786    0.340050   -0.739511
H       0.923376   -1.497937    1.509867
H       0.305910   -0.077049    3.635323
H       1.067036    1.516170    3.835217
H      -0.265605    1.305092    2.684946
H       3.177893    0.127685    3.597340
H       3.461561   -0.804190    2.105416
H       3.894520    2.205757    2.425322
H       4.157602    1.267416    0.931716
