19

C      -0.195959    1.557547   -0.025815
C       0.021919    0.046872   -0.000009
C       0.851183   -0.514931   -1.150850
O       2.256858   -0.086471   -0.961520
C       2.546109   -1.382616   -0.419286
C       1.214052   -1.960948   -0.756812
C       1.571446   -1.702013    0.697772
C       0.811380   -0.489038    1.246737
O       1.669495    0.471866    1.836540
H       0.752428    2.093921   -0.105260
H      -0.819066    1.842565   -0.879988
H      -0.692906    1.897625    0.886984
H      -0.951064   -0.463382   -0.027021
H       0.513855   -0.301637   -2.166538
H       3.560568   -1.753106   -0.501993
H       0.905594   -2.892727   -1.208610
H       1.820334   -2.536813    1.342780
H       0.121324   -0.781859    2.042665
H       2.290466    0.729235    1.143345
