17

C       2.034091   -0.829990    2.617868
C       1.119459   -1.116383    1.449192
C       0.205569   -0.062617    0.856068
C       0.230797    1.275324    1.357143
C       0.222587    2.421221    1.749251
C       0.217745    3.707970    2.200478
N       0.216620    4.804634    2.586079
N       1.343029   -0.626937    0.101037
C       2.494011    0.216378   -0.202555
H       2.942493   -1.437397    2.547246
H       2.324718    0.219672    2.683887
H       1.529768   -1.094703    3.552267
H       0.699099   -2.121834    1.458426
H      -0.768251   -0.371719    0.481042
H       2.291073    0.754374   -1.132680
H       2.751176    0.953514    0.568308
H       3.357906   -0.434094   -0.366751
