20

C      -0.137746    1.510063    0.099242
C       0.137720    0.005275   -0.031529
C       0.752950   -0.574412    1.199965
C       0.109451   -1.037449    2.461516
C       1.049021   -1.981763    1.689778
C       0.676374   -3.354174    1.214991
C       2.434850   -1.457867    1.887456
N       3.539091   -1.972712    2.183593
O       2.116202   -0.149100    1.530548
H       0.787944    2.055140    0.304308
H      -0.569580    1.906756   -0.823957
H      -0.836208    1.712516    0.917158
H      -0.795129   -0.534050   -0.234110
H       0.804592   -0.180611   -0.881745
H       0.407548   -0.611365    3.414573
H      -0.938309   -1.316027    2.386430
H      -0.373107   -3.392527    0.907081
H       1.295323   -3.659817    0.366095
H       0.817682   -4.091441    2.012056
H       4.286779   -1.276872    2.166581
