13

N      -0.051281    1.480662    0.064139
C      -0.004398   -0.001076    0.010969
C      -1.390745   -0.507900    0.020376
C      -2.520929   -0.909918    0.008277
C       0.684785   -0.506317   -1.200467
C       1.252614   -0.855225   -2.200002
C       0.713040   -0.483900    1.207235
C       1.314633   -0.866179    2.172133
H       0.905439    1.824449    0.023976
H      -0.517326    1.808247   -0.778835
H      -3.519983   -1.270810    0.005726
H       1.752498   -1.178547   -3.079749
H       1.839673   -1.209797    3.029232
