18

C       0.180158    1.305774    0.634163
C      -0.224982    0.355682   -0.507347
C      -1.454088   -0.383113   -0.236362
C      -2.456226   -1.003811    0.015529
C      -3.684268   -1.752148    0.291922
O      -3.443181   -2.941503    0.995663
C      -4.712727   -0.907190    1.094105
N      -4.912078    0.357521    0.660970
O      -5.319088   -1.428850    2.012592
H       1.108414    1.827346    0.383431
H      -0.596596    2.054300    0.814038
H       0.335130    0.751237    1.563268
H      -0.340730    0.924216   -1.439051
H       0.584613   -0.361325   -0.693741
H      -4.175037   -1.974912   -0.673366
H      -4.107871   -2.932796    1.707505
H      -4.233565    0.783740    0.050987
H      -5.526363    0.952132    1.193866
