15

N      -0.012184    1.287241    0.008242
C       0.045767   -0.068241    0.000775
O       1.090820   -0.692480   -0.012993
C      -1.315547   -0.766808    0.011186
N      -1.092274   -2.187212    0.002505
C      -2.123969   -3.068489    0.005803
O      -3.295903   -2.728804    0.017404
C      -1.705392   -4.464696   -0.005696
C      -1.395654   -5.626150   -0.015010
H       0.850202    1.806242    0.002005
H      -0.882433    1.789942    0.019747
H      -1.888020   -0.459767    0.896771
H      -1.905513   -0.451909   -0.860041
H      -0.124322   -2.480469   -0.008703
H      -1.131213   -6.655340   -0.023206
