20

C       0.023999    1.528032   -0.082962
C       0.059679   -0.004584    0.038695
C       0.735782   -0.403189    1.334952
O       1.683902   -1.138676    1.432981
C      -1.350819   -0.606636    0.007192
C      -2.182320   -0.492244   -1.304344
C      -2.697605   -1.935787   -1.054681
C      -1.514091   -2.152034   -0.074329
H       1.032685    1.949375   -0.128856
H      -0.509980    1.827497   -0.989395
H      -0.492279    1.979654    0.772089
H       0.651035   -0.434713   -0.777911
H       0.262846    0.044736    2.243671
H      -1.933340   -0.212210    0.849726
H      -2.919307    0.311267   -1.374173
H      -1.529984   -0.443820   -2.182627
H      -3.660338   -1.937763   -0.535882
H      -2.768848   -2.601718   -1.917336
H      -0.654175   -2.614908   -0.568567
H      -1.709027   -2.693566    0.854288
