19

C      -0.286445    1.537071    0.102333
C       0.006124    0.053691    0.044763
C      -0.786659   -0.904975    0.899721
C       0.675137   -0.643598    1.197203
C       1.723888   -1.680524    0.846596
C       1.415002   -2.473962   -0.414582
O       1.732393   -3.619757   -0.575494
O       0.724015   -1.835062   -1.395069
C       0.468440   -0.426514   -1.317757
H       0.587349    2.129753   -0.193790
H      -1.114083    1.807083   -0.564068
H      -0.564505    1.839287    1.116139
H      -1.519907   -0.479268    1.575858
H      -1.068889   -1.867036    0.485241
H       0.896637   -0.055090    2.082842
H       2.693647   -1.186782    0.690719
H       1.872552   -2.413225    1.643808
H      -0.291821   -0.240803   -2.082777
H       1.376656    0.118229   -1.614489
