19

C      -0.769388    1.295203   -0.225015
C      -0.221720   -0.119141    0.033542
C       1.082888   -0.057534    0.854265
N      -1.212810   -0.850428    0.820031
C       0.078165   -0.875849   -1.295584
O      -0.304776   -2.000856   -1.493271
N       0.853724   -0.162978   -2.222725
C       1.320195   -0.593246   -3.464198
O       1.136214   -1.664477   -3.968972
H      -0.023417    1.969468   -0.657421
H      -1.634319    1.272737   -0.896501
H      -1.088499    1.725036    0.728021
H       0.886368    0.450704    1.801539
H       1.443877   -1.066441    1.077138
H       1.879933    0.475997    0.326981
H      -2.111175   -0.807989    0.343601
H      -0.966217   -1.837902    0.800460
H       1.115456    0.777738   -1.970160
H       1.907884    0.215756   -3.946158
