20

C      -0.047777    1.616625    0.018019
C       0.007743    0.084755    0.028900
C       0.728216   -0.522044   -1.206348
C       1.490491   -1.769771   -0.700422
C       1.587336   -1.506660    0.785856
N       2.390651   -2.265456    1.644962
C       3.203736   -3.324420    1.335631
O       3.377564   -3.805926    0.239496
C       0.789759   -0.506504    1.179163
H       0.961383    2.042325   -0.009812
H      -0.594239    1.982760   -0.857910
H      -0.552058    2.004479    0.909841
H      -1.029877   -0.284027    0.070482
H       0.040880   -0.751664   -2.024631
H       1.449427    0.210413   -1.586309
H       0.940558   -2.701358   -0.882517
H       2.466058   -1.903243   -1.170065
H       2.362673   -2.007294    2.620760
H       3.704865   -3.706326    2.247484
H       0.668099   -0.173605    2.205354
