21

C       0.046651    1.591060   -0.064661
C       0.060849    0.059171    0.012159
C       0.629231   -0.524696   -1.283108
C       0.828978   -2.027992   -1.157478
N       1.676644   -2.266009   -0.006996
C       1.535327   -1.606531    1.197850
O       2.057961   -2.046833    2.211518
N       0.822486   -0.416570    1.174067
C       0.502590    0.174749    2.465080
H       1.067740    1.983414   -0.113665
H      -0.487624    1.906800   -0.966083
H      -0.455330    2.045293    0.792351
H      -0.985829   -0.280292    0.114005
H      -0.052116   -0.294663   -2.107500
H       1.593579   -0.051838   -1.501541
H      -0.147132   -2.533452   -1.069471
H       1.320589   -2.429309   -2.049648
H       2.083276   -3.179319    0.118528
H       0.980625   -0.429873    3.233318
H       0.870478    1.203046    2.541734
H      -0.583739    0.184291    2.633541
