19

O      -0.148202    1.395804    0.009378
C       0.049319    0.012272   -0.001706
C       0.990351   -0.687457   -1.025763
C       0.906257   -1.863752   -0.004511
C       0.865032   -0.750050    1.091835
C      -0.546879   -2.486813   -0.052938
C      -1.411802   -1.797918   -1.137553
C      -1.367803   -0.694475   -0.054689
O      -1.358306   -1.770351    0.932421
H       0.714687    1.823205    0.016535
H       0.684486   -0.821522   -2.062010
H       1.987892   -0.236114   -1.011361
H       1.698381   -2.611485    0.012966
H       1.852937   -0.301743    1.231926
H       0.394099   -0.965111    2.046479
H      -0.571575   -3.568402    0.090647
H      -1.042355   -1.628852   -2.147047
H      -2.403702   -2.249954   -1.170511
H      -2.178390    0.021635    0.085344
