17

C       0.036773    1.521977   -0.063008
C       0.021332    0.022448    0.050916
O       0.577342   -0.577681   -1.162587
C       0.174910   -1.956282   -1.202985
C      -0.699186   -2.143176    0.067056
C       0.191829   -1.929070    1.266982
C       0.635088   -0.658156    1.250264
C      -1.337630   -0.722932    0.072960
O      -2.467685   -0.344005    0.091229
H       1.062225    1.894287   -0.139345
H      -0.514805    1.839095   -0.951029
H      -0.435028    1.969852    0.816084
H      -0.406180   -2.141899   -2.114860
H       1.059892   -2.602962   -1.202358
H      -1.368317   -2.999924    0.066415
H       0.429640   -2.696943    1.992150
H       1.306258   -0.183978    1.955090
