19

C       0.015145    1.417492   -0.050511
O      -0.005875    0.010330    0.013227
C       0.622058   -0.597153   -1.084457
C       0.570817   -2.083102   -0.968410
C       0.015347   -2.796616    0.021124
C       0.170501   -4.244423   -0.227118
O      -0.215913   -5.155011    0.468891
C       0.928894   -4.394258   -1.559249
C       1.189665   -2.955602   -2.041967
H       1.044049    1.810119   -0.064267
H      -0.508568    1.793477   -0.943455
H      -0.493711    1.789805    0.841091
H       0.144344   -0.289896   -2.034882
H       1.678133   -0.274732   -1.165949
H      -0.483404   -2.395630    0.891954
H       1.847840   -4.962482   -1.389926
H       0.321047   -4.976662   -2.257360
H       0.735955   -2.749464   -3.019381
H       2.258597   -2.734919   -2.153219
