21

C      -0.019187    1.567186   -0.089725
C      -0.005650    0.037282   -0.125601
C      -1.403261   -0.568724    0.122650
C      -1.418330   -2.066356    0.109772
C      -1.656318   -2.876316    1.154414
C      -1.587710   -4.297387    0.763414
O      -1.746316   -5.264979    1.472610
C      -1.274615   -4.329166   -0.743302
C      -1.149846   -2.852791   -1.160613
H       0.980946    1.975213   -0.264001
H      -0.685343    1.975933   -0.857506
H      -0.366274    1.937872    0.880902
H       0.375565   -0.303310   -1.095338
H       0.687946   -0.347728    0.631424
H      -1.787866   -0.205562    1.082294
H      -2.086549   -0.196666   -0.654526
H      -1.879092   -2.565934    2.168090
H      -0.360351   -4.904900   -0.913018
H      -2.079095   -4.854440   -1.266317
H      -1.866769   -2.570070   -1.941853
H      -0.158623   -2.615595   -1.564721
