25

C      -0.014388    1.511395   -0.090390
C      -0.019248    0.055378   -0.050177
C      -0.020401   -1.148547   -0.006977
C      -0.031293   -2.612663    0.014666
C      -1.479276   -3.142380    0.064511
C       0.768566   -3.163161   -1.193588
C       0.953998   -4.690824   -1.256441
C       1.671486   -5.072484   -2.559471
C       1.713952   -5.243477   -0.042226
H       0.368523    1.883666   -1.047307
H      -1.023441    1.918206    0.040833
H       0.615457    1.931298    0.701996
H       0.474736   -2.934434    0.935048
H      -2.014240   -2.886154   -0.855636
H      -1.499638   -4.229497    0.183018
H      -2.021545   -2.699080    0.903741
H       0.269423   -2.824517   -2.110412
H       1.757757   -2.687729   -1.192687
H      -0.038083   -5.161256   -1.278644
H       2.676915   -4.635951   -2.595379
H       1.778430   -6.158647   -2.649144
H       1.123059   -4.714816   -3.437271
H       1.179656   -5.068315    0.896427
H       1.865468   -6.323919   -0.136024
H       2.702513   -4.776293    0.045046
