13

C       0.059195    1.502752    0.048898
C      -0.002873   -0.034862    0.002411
C       0.748635   -0.616053    1.196237
O       1.868426   -1.045242    1.129199
C      -1.442200   -0.527329    0.000260
F      -2.113248   -0.093349   -1.074802
F      -1.490894   -1.868199   -0.002445
F      -2.108465   -0.105589    1.089874
H       1.097269    1.834360   -0.021242
H      -0.502381    1.927377   -0.786430
H      -0.368456    1.885749    0.979550
H       0.474908   -0.409763   -0.906631
H       0.195173   -0.573099    2.159264
