17

O      -0.022182    1.296243   -0.337893
C      -0.061753   -0.126427   -0.256788
C      -1.489195   -0.482216    0.132301
O      -1.855470    0.169356    1.318174
C      -2.504542   -0.380262   -1.070240
C      -2.310672   -1.886084   -1.230134
O      -2.302279   -2.656236   -2.151399
C      -1.741627   -2.024225    0.180655
O      -0.683229   -2.917621    0.373001
H       0.896217    1.579541   -0.337922
H       0.211581   -0.591614   -1.214916
H       0.619300   -0.506974    0.514329
H      -1.498248    1.064947    1.247028
H      -3.503506   -0.123087   -0.706748
H      -2.245413    0.248572   -1.923151
H      -2.545237   -2.190251    0.914304
H      -0.625350   -3.454307   -0.428346
