12

C       0.010209    1.539073    0.039681
C      -0.008057    0.001460    0.009640
O       0.706848   -0.426404    1.160053
C      -1.384458   -0.516812    0.005923
C      -2.504147   -0.949450    0.032779
C       0.684691   -0.480345   -1.218140
N       1.243127   -0.860586   -2.155187
H       1.046163    1.883378    0.058676
H      -0.495100    1.945477   -0.837811
H      -0.501055    1.873583    0.944120
H       0.631085   -1.385976    1.224401
H      -3.495433   -1.332331    0.050169
