14

C      -0.052785    1.593888    0.072516
C       0.023704    0.077583   -0.017948
C       1.109591   -0.593205   -0.921793
O       1.314096   -0.601782   -2.094880
C       1.711077   -1.333552    0.279057
O       2.036633   -0.288531    1.215540
C       0.673818   -0.702855    1.148367
C       0.043512   -1.234717    2.315713
N      -0.509877   -1.644401    3.244433
H       0.897287    2.007861    0.418048
H      -0.272829    2.012380   -0.913660
H      -0.844002    1.907951    0.759462
H      -0.943103   -0.362590   -0.291494
H       2.233602   -2.278090    0.373480
