16

O       0.051360   -0.048801    0.094832
C       0.005097    1.163507    0.015408
C      -1.294163    1.895835   -0.286222
C      -1.190891    3.387929   -0.367547
C      -0.051787    4.051483   -0.217991
C       1.268314    3.376998    0.064022
N       1.117572    1.934047    0.216072
C       2.257492    3.702925   -0.975813
C       3.080156    3.969843   -1.809703
H      -1.684129    1.478555   -1.223317
H      -2.018968    1.591679    0.479735
H      -2.109203    3.935994   -0.562153
H      -0.005662    5.132104   -0.294723
H       1.654456    3.785078    1.012902
H       1.961725    1.399663    0.367153
H       3.801871    4.202073   -2.553777
