23

C      -0.083527    1.609174   -0.040182
C      -0.043651    0.082270   -0.105438
O       0.950711   -0.443860    0.773386
C      -1.419176   -0.552868    0.157454
C      -1.423815   -2.051374    0.028394
C      -1.547287   -2.749690   -1.300560
C      -2.582796   -3.020076   -0.241375
C      -2.027424   -4.012896    0.785546
C      -0.838797   -3.033347    1.056907
H       0.915797    2.021328   -0.204438
H      -0.759803    2.023258   -0.795260
H      -0.435631    1.948175    0.942675
H       0.293229   -0.225585   -1.102861
H       0.711611   -0.185149    1.670556
H      -1.752292   -0.259609    1.165813
H      -2.146551   -0.120829   -0.542432
H      -1.879335   -2.123859   -2.124033
H      -0.841807   -3.526096   -1.591084
H      -3.631582   -2.799755   -0.407529
H      -2.670653   -4.136782    1.659890
H      -1.773555   -5.006249    0.399600
H       0.172279   -3.395475    0.850988
H      -0.859381   -2.636882    2.075593
