16

C      -0.083023    1.552236   -0.086824
C       0.018718    0.066242   -0.009054
C       0.619189   -1.005529   -0.903882
C       1.357676   -1.655168    0.263436
C       0.273548   -0.988771    1.147273
O      -0.943521   -1.712760    0.799703
C      -0.874919   -1.056252   -0.460818
C      -1.972685   -1.073416   -1.366464
N      -2.851800   -1.059238   -2.118966
H       0.878339    2.027416    0.136406
H      -0.381996    1.860215   -1.093871
H      -0.826430    1.937546    0.618360
H       0.893832   -0.935141   -1.948571
H       1.424579   -2.744855    0.317610
H       2.338618   -1.196012    0.408885
H       0.379558   -0.815485    2.215208
