17

C       0.064308   -1.155391   -0.040567
C       0.006063    0.046261    0.004671
C      -0.060706    1.465787    0.059445
C      -1.118921    2.245432    0.845616
C      -0.645390    3.641998    0.392690
C       0.849779    3.637562    0.781417
C       1.193079    2.373869    0.005735
C       0.221640    2.373902   -1.141172
O      -0.603679    3.510530   -1.041331
H       0.114739   -2.214856   -0.079916
H      -2.133295    2.019474    0.508501
H      -1.047846    2.098983    1.926209
H      -1.249560    4.503700    0.666406
H       1.376270    4.518527    0.403786
H       1.005813    3.551644    1.859808
H       2.185255    1.951344   -0.065257
H       0.408378    2.019682   -2.144230
