17

C      -0.098501    1.459599    0.008813
C      -0.012054   -0.033306   -0.043167
C      -0.261293   -0.821915   -1.093051
C       0.012185   -2.277814   -0.811648
O       1.148121   -2.758483   -1.537468
C       0.187278   -2.309466    0.731824
C       0.409618   -0.841427    1.168192
H       0.865408    1.900752    0.293717
H      -0.396705    1.883440   -0.953656
H      -0.822532    1.786436    0.765946
H      -0.555492   -0.474480   -2.078100
H      -0.799639   -2.938238   -1.133919
H       1.840511   -2.094095   -1.448492
H      -0.722119   -2.701942    1.196720
H       1.007108   -2.977739    1.005865
H       1.454626   -0.624886    1.431317
H      -0.178925   -0.579298    2.055797
