16

O      -0.042445    1.417077   -0.024211
C      -0.017886    0.043189    0.022731
C      -0.271420   -0.834460   -1.171733
C      -1.196386   -0.918541    0.019670
C      -0.536162   -1.779009    1.099691
C       0.678294   -0.764518    1.132522
O       1.956951   -1.228473    0.759308
C       0.744545   -0.036638    2.407398
N       0.831363    0.491871    3.431545
H       0.725421    1.723454   -0.520549
H      -0.669598   -0.284303   -2.017981
H       0.391462   -1.657268   -1.422653
H      -2.251261   -0.689791   -0.045637
H      -1.078681   -1.814749    2.045118
H      -0.246445   -2.789551    0.797542
H       2.343178   -1.709242    1.500480
