16

C       0.021850    1.621227    0.288523
C       0.086521    0.120550   -0.006614
O       0.763405   -0.149391   -1.247769
C       2.110151   -0.312555   -1.239489
N       2.802563   -0.451782   -2.286506
C       2.768119   -0.319452    0.116887
O       1.972050   -0.961128    1.123354
C       0.656643   -0.667345    1.170862
O      -0.022155   -1.016655    2.094833
H       1.013449    2.048768    0.462828
H      -0.432780    2.139305   -0.559271
H      -0.588774    1.790848    1.179043
H      -0.925337   -0.260073   -0.156160
H       2.215098   -0.379096   -3.119601
H       3.702487   -0.873655    0.054866
H       2.995735    0.705970    0.434316
