17

C      -0.116874    1.631938   -0.001628
C      -0.039053    0.112537   -0.000038
C       1.153951   -0.576417   -0.703796
C       2.100661   -0.375803    0.521395
O       2.502481   -1.773069    0.604201
C       1.079700   -1.822700    0.253144
C       0.412228   -3.071331    0.074261
C      -0.168096   -4.113101   -0.080757
C       0.694326   -0.598023    1.162052
H       0.848127    2.089417    0.241547
H      -0.425274    2.007969   -0.983077
H      -0.848057    1.988114    0.732034
H      -1.010135   -0.331780   -0.244395
H       1.437462   -0.600274   -1.756201
H       2.851716    0.386437    0.715234
H      -0.674769   -5.036690   -0.216255
H       0.456773   -0.646382    2.224941
