17

C       0.007255    1.584151   -0.017537
C      -0.034004    0.082819    0.000516
C       0.447190   -0.778486   -1.204508
C      -0.501910   -1.856515   -0.690057
N      -0.504953   -1.865703    0.806860
C       0.448088   -0.769506    1.190381
C      -1.323729   -0.860055    0.054255
C      -2.714162   -0.632064    0.191609
N      -3.843711   -0.394481    0.285593
H       1.044786    1.936937   -0.045004
H      -0.505947    1.988234   -0.895924
H      -0.467264    2.005737    0.874439
H       0.096144   -0.377592   -2.158558
H       1.516807   -1.004309   -1.262976
H      -0.839457   -2.764156   -1.171980
H       1.502527   -1.065885    1.217964
H       0.141426   -0.374987    2.161965
