17

N      -0.000100   -1.120269   -0.084984
C      -0.009200    0.036618   -0.046638
C      -0.025006    1.469327    0.005146
C       0.432503    2.250924   -1.218065
C       1.264479    2.297219    0.030389
N       1.159955    3.356584    1.021455
C       0.221706    4.456817    0.750489
C      -0.205833    3.311911    1.592128
C      -0.999596    2.155471    0.978549
H       0.830640    1.667068   -2.040339
H      -0.163644    3.099941   -1.528074
H       2.228185    1.802345    0.020621
H       0.496388    5.396755    1.220918
H      -0.203494    4.571152   -0.241420
H      -0.277244    3.443065    2.668432
H      -1.916130    2.485263    0.479537
H      -1.291049    1.447916    1.758148
