19

C       0.507460    1.153883   -0.306893
O       0.551364   -0.234691   -0.025735
C       0.513957   -0.541277    1.344894
C       0.327696   -2.077679    1.423964
O       1.135733   -2.712204    2.393510
C       2.483951   -2.334779    2.360174
C       3.171466   -1.858118    1.089717
C       2.763366   -0.881978    2.175003
O       1.642744   -0.044603    2.033784
H       1.369856    1.677319    0.120094
H       0.518508    1.258607   -1.393717
H      -0.412953    1.610097    0.087673
H      -0.327749   -0.012289    1.814248
H      -0.703491   -2.306698    1.700872
H       0.508780   -2.490850    0.423313
H       3.046145   -2.925967    3.073690
H       4.227812   -2.083872    0.988008
H       2.627445   -1.826538    0.154707
H       3.520965   -0.368325    2.755288
