22

C       0.119389    1.559685    0.278700
C       0.075145    0.032353    0.100927
C       0.653070   -0.642223    1.360620
C      -1.387163   -0.410533   -0.093599
O      -2.145532   -0.052210    1.054545
C       0.856064   -0.463954   -1.118860
C       0.850039    0.218840   -2.465234
C       2.111886    0.189807   -1.637107
H       1.130010    1.906726    0.512726
H      -0.225263    2.087794   -0.616424
H      -0.536762    1.849651    1.102236
H       0.077518   -0.366605    2.247351
H       0.626137   -1.734111    1.268664
H       1.695663   -0.345370    1.512344
H      -1.791122    0.068826   -0.998872
H      -1.415633   -1.500410   -0.255810
H      -3.057587   -0.316625    0.907087
H       0.867859   -1.551176   -1.174394
H       0.796543   -0.401696   -3.353254
H       0.340552    1.170791   -2.564713
H       2.433325    1.122519   -1.187877
H       2.927960   -0.449570   -1.955551
