21

C      -0.001581    1.359165    0.202281
N      -0.063539   -0.092729    0.309193
C      -1.118550   -0.683751   -0.008347
O      -2.328891   -0.183837   -0.457693
C      -2.868142   -1.528907   -0.625087
C      -1.565807   -2.138314   -0.057323
N      -0.828677   -3.012177   -0.946486
C       0.538402   -3.231299   -0.480886
C      -1.528138   -4.274185   -1.141259
H       0.857570    1.633935   -0.418864
H      -0.903846    1.815572   -0.220394
H       0.173723    1.784326    1.196807
H      -3.777999   -1.662972   -0.035910
H      -3.046138   -1.746591   -1.680671
H      -1.698539   -2.565278    0.955112
H       0.576627   -3.803098    0.466056
H       1.090019   -3.795646   -1.239068
H       1.030440   -2.270738   -0.320829
H      -2.530953   -4.097472   -1.543117
H      -0.979665   -4.886061   -1.863522
H      -1.631840   -4.859456   -0.207014
