19

C       0.036381    1.525496   -0.147517
C       1.336019    0.802343    0.039805
O       1.864387    0.673654    1.358427
C       0.885780   -0.020564    2.072841
C       0.819686   -1.167620    3.116639
C      -0.645847   -0.946741    2.558818
C      -0.411597    0.565250    2.746444
C       0.033900   -0.859210    1.132236
C       0.021292    0.001154   -0.117785
H      -0.352542    2.136294    0.653862
H      -0.130335    1.949405   -1.133369
H       2.123049    0.839320   -0.703602
H       1.314403   -2.103759    2.847831
H       0.968464   -0.907466    4.167081
H      -1.524552   -1.516604    2.852547
H      -0.301507    0.914773    3.776051
H      -1.055567    1.224695    2.171798
H       0.486941   -1.816884    0.850204
H      -0.188217   -0.488624   -1.062213
