19

C      -0.037065    1.518989   -0.013300
C       0.008056    0.013939   -0.030727
C       0.053805   -0.752811    1.265180
C       1.349291   -0.513212    2.059361
C       1.368301   -1.272238    3.379745
O       2.589482   -0.971920    4.037325
N       0.015086   -0.686885   -1.100296
O      -0.008579    0.121288   -2.251801
H       0.922523    1.939572   -0.334509
H      -0.788626    1.882496   -0.719127
H      -0.261285    1.899110    0.985645
H      -0.806990   -0.457772    1.882589
H      -0.056249   -1.817330    1.037323
H       2.212970   -0.823277    1.460606
H       1.479898    0.553740    2.273979
H       0.500993   -0.973456    3.992323
H       1.272179   -2.353518    3.187956
H       2.616488   -1.465039    4.862311
H      -0.030543   -0.535207   -2.955569
