14

O       0.104514   -0.055808    0.067729
C       0.046415    1.149052    0.084292
C       1.234504    2.022594   -0.067923
C       2.529511    1.523513   -0.680409
C       3.415873    2.709177   -1.032219
C       2.904427    3.271710    0.314693
N       2.536330    1.805705    0.759233
C       1.406913    3.497588    0.102505
O       0.658697    4.422523    0.232394
H      -0.911255    1.692726    0.213042
H       2.545009    0.503688   -1.049839
H       4.469371    2.425766   -0.976271
H       3.228080    3.286508   -1.941156
H       3.496303    3.907926    0.966861
