17

C       0.073709    1.500202    0.120807
C       0.001659    0.013879    0.022009
C      -0.034585   -0.724851   -1.109815
C      -0.065731   -0.248925   -2.440451
C      -0.107152    0.119509   -3.587870
C       0.000768   -2.188469   -0.770519
O       1.199943   -2.577538   -0.068681
C       0.028768   -2.283882    0.696230
C      -0.007302   -0.869553    1.256526
H       1.007929    1.814343    0.603939
H       0.023104    1.967053   -0.865247
H      -0.743637    1.893729    0.738517
H      -0.133180    0.450757   -4.596228
H      -0.417426   -2.936500   -1.436058
H      -0.391789   -3.117307    1.251880
H       0.849997   -0.667752    1.910928
H      -0.910866   -0.700625    1.858230
