17

O       0.200273    1.142114   -0.684659
C      -0.614730    0.891813    0.434792
C      -1.431648   -0.397031    0.261416
O      -2.115970   -0.700259    1.488734
C      -1.709115   -1.770677    2.204933
O      -2.206973   -2.074355    3.244852
C      -2.496459   -0.337522   -0.821958
C      -3.365216    0.828012   -1.017524
O      -2.271204    0.567527   -1.910539
H      -0.398517    1.252958   -1.435525
H       0.046044    0.757997    1.297398
H      -1.283220    1.732826    0.673746
H      -0.727612   -1.205112    0.021548
H      -0.880614   -2.321243    1.717954
H      -2.883763   -1.308964   -1.129263
H      -4.352163    0.684671   -1.451312
H      -3.254948    1.706392   -0.387454
