19

C       0.144809    1.637119   -0.018038
C       0.083130    0.108827   -0.023230
C       0.777438   -0.553485   -1.220549
C       2.266522   -0.622622   -1.202136
C       1.447788   -1.837940   -0.753898
C       1.226652   -1.936109    0.713579
O       1.415435   -2.895303    1.423720
C       0.683618   -0.576061    1.223146
O       1.766602    0.191041    1.750417
H       1.176754    1.990017    0.032237
H      -0.313462    2.038717   -0.927661
H      -0.391938    2.050610    0.841381
H      -0.970424   -0.197549   -0.059388
H       0.268315   -0.529482   -2.177895
H       2.780331   -0.743990   -2.149312
H       2.813694   -0.069285   -0.449060
H       1.497117   -2.748347   -1.337414
H      -0.072594   -0.749794    1.999468
H       2.165126   -0.331226    2.456188
