18

O       0.023973    1.444703    0.080223
C       0.023155    0.035117    0.004604
C       0.800125   -0.564153    1.186029
N       0.678442   -2.014961    1.228054
C      -0.402022   -2.750813    0.826185
O      -0.538777   -3.921112    1.129446
C      -1.379947   -2.047900   -0.114035
C      -1.400369   -0.523584   -0.018634
O      -1.994891   -0.061728    1.196969
H      -0.637147    1.672778    0.746713
H       0.518780   -0.232511   -0.934873
H       1.855792   -0.293393    1.092455
H       0.420251   -0.108561    2.110293
H       1.286769   -2.517636    1.859400
H      -1.105447   -2.343120   -1.134872
H      -2.371592   -2.471807    0.069466
H      -1.932219   -0.096260   -0.880641
H      -2.925790   -0.303001    1.198446
