18

C       0.125043    1.289102   -0.485672
C      -0.043422   -0.015183    0.307097
C      -1.460989   -0.554604    0.241116
C      -2.535751    0.254852    0.938763
O      -1.842439   -1.094335   -1.022946
C      -1.725545   -2.018669    0.052959
C      -0.640139   -3.043746    0.000974
O       0.324604   -3.008301   -0.720442
H       1.170538    1.609364   -0.470314
H      -0.167894    1.140990   -1.529145
H      -0.476073    2.106029   -0.074746
H       0.638929   -0.766064   -0.095300
H       0.222807    0.146098    1.359279
H      -2.574487    1.271019    0.534797
H      -3.518387   -0.201333    0.799387
H      -2.329077    0.327986    2.011439
H      -2.671656   -2.402450    0.440629
H      -0.793869   -3.877809    0.723468
