18

C       0.084731    1.510979    0.015261
C      -0.082065    0.032803    0.033413
C      -1.143147   -0.812074   -0.009360
C      -2.638888   -0.904135   -0.082644
C      -2.848615   -2.405117   -0.474812
C      -1.589238   -3.187027    0.015319
C      -0.553921   -2.100672    0.042829
N       0.747994   -2.076240    0.108819
O       1.057614   -0.702437    0.103222
H       0.733488    1.823204   -0.809583
H      -0.885793    1.997464   -0.101345
H       0.541181    1.868155    0.944701
H      -3.099516   -0.686596    0.889563
H      -3.098579   -0.227607   -0.809185
H      -3.777666   -2.815144   -0.071704
H      -2.907547   -2.478921   -1.565363
H      -1.739781   -3.592281    1.023244
H      -1.331225   -4.026163   -0.634995
