17

O      -0.018528    0.283988   -0.874776
C      -0.011576    1.301621   -0.241125
C      -1.088853    2.129955    0.506406
C      -0.022338    3.236815    0.661902
C      -0.183231    4.692607    0.479401
N       0.214050    4.126731    1.789996
C       1.042801    2.333057    0.069695
C       2.425836    2.043088    0.544427
N       2.199206    2.714956   -0.734402
H      -1.976747    2.371780   -0.083679
H      -1.400388    1.659314    1.445251
H       0.596605    5.253868   -0.026617
H      -1.189303    5.088011    0.363716
H      -0.583690    4.116099    2.421580
H       2.825731    2.676822    1.330184
H       2.748966    1.005371    0.550890
H       2.297005    2.054425   -1.504874
