16

O       0.593208    0.971698    0.584846
C       0.175116   -0.255094    0.064159
C      -1.358002   -0.403938   -0.080093
C      -1.460264   -1.417717   -1.225604
O      -0.286864   -1.200886   -2.048083
C       0.624373   -0.469137   -1.370096
N       1.694673    0.030300   -1.812168
C      -2.042728   -0.823448    1.198767
O      -2.590958   -1.885155    1.357707
H       1.356355    1.234171    0.046571
H       0.561272   -1.093467    0.670388
H      -1.741673    0.580960   -0.374815
H      -1.456234   -2.444012   -0.848499
H      -2.337032   -1.277310   -1.859081
H       1.843508   -0.169542   -2.800732
H      -1.991259   -0.070658    2.013935
