13

O      -0.088300    1.472320    0.009382
C       1.359099    1.236425   -0.004686
C       1.236747    0.068618    1.037672
C       2.238962   -0.997765    0.644257
C       2.227136   -0.990553   -0.693149
C       1.218227    0.079919   -1.057257
C       0.059528    0.013252    0.000204
H       2.021493    2.105903   -0.005852
H       1.018985    0.304139    2.077737
H       2.818911   -1.611234    1.319465
H       2.794996   -1.596648   -1.385084
H       0.982132    0.326628   -2.090707
H      -0.848434   -0.595306    0.004947
