23

C       0.753249    1.451075   -0.332575
C       0.123937    0.115035    0.052908
C       0.561720   -1.107543   -0.810086
C       1.383987   -1.670254    0.385241
C       2.892205   -1.580147    0.209618
O       3.254724   -2.531835   -0.782276
C       0.707270   -0.610102    1.313523
C       1.537907    0.170377    2.315831
O       0.663466    1.088646    2.964345
H       1.836556    1.372244   -0.477327
H       0.329096    1.815225   -1.274786
H       0.570562    2.202717    0.441337
H      -0.959873    0.248334    0.112732
H      -0.268298   -1.754766   -1.103110
H       1.146105   -0.879307   -1.705932
H       1.150983   -2.706161    0.648655
H       3.188258   -0.564634   -0.097444
H       3.398515   -1.793913    1.165535
H       4.199211   -2.452928   -0.944519
H      -0.107702   -1.078437    1.874383
H       1.989518   -0.524745    3.042706
H       2.362752    0.703208    1.819429
H       1.182539    1.614445    3.580023
