21

C       0.090123    1.547083   -0.002433
C       0.029928    0.024231    0.088476
O       0.596630   -0.452952    1.317732
C      -1.377826   -0.539676   -0.061600
C      -2.132511   -0.565569   -1.438081
C      -2.333771   -2.081210   -1.277325
C      -0.975458   -2.744817   -1.216127
C      -1.524639   -2.061611    0.008577
O      -1.765302   -2.744021    1.187244
H       1.115400    1.900736    0.137649
H      -0.268849    1.897512   -0.975659
H      -0.541129    2.007585    0.768459
H       0.676375   -0.405878   -0.685705
H       0.119446   -0.024047    2.037530
H      -2.026735   -0.086723    0.699199
H      -3.055412    0.017087   -1.425462
H      -1.542938   -0.269631   -2.313246
H      -3.232808   -2.631487   -1.524105
H      -1.003749   -3.827140   -1.142937
H      -0.138286   -2.350725   -1.789061
H      -0.922239   -2.782993    1.655392
