16

C      -0.019759    1.521364    0.023321
C       0.000848    0.018751   -0.008401
C      -0.019436   -0.673778   -1.176062
C      -0.000057   -2.113143   -1.213990
N      -0.016863   -2.831388   -2.259691
O       0.041689   -2.746274    0.058117
C       0.061098   -2.039169    1.198670
O       0.100139   -2.823013    2.282693
C       0.043128   -0.691246    1.241538
H       0.867594    1.909454    0.536890
H      -0.050501    1.945322   -0.982386
H      -0.891608    1.884351    0.580016
H      -0.051203   -0.180970   -2.138762
H       0.003135   -3.823535   -2.028083
H       0.105542   -3.742106    1.985234
H       0.060600   -0.185361    2.196017
