25

C       0.162663    1.545807   -0.121146
C      -0.017177    0.039033   -0.014124
O       0.689308   -0.553460   -1.087492
C       0.705819   -1.982936   -1.188432
C       1.460920   -2.618641   -0.010723
C      -0.713192   -2.559804   -1.295285
C       1.443035   -2.227577   -2.539931
C       2.827327   -1.589679   -2.623984
O       1.492862   -3.618295   -2.850997
H       1.221783    1.811634   -0.057405
H      -0.223520    1.910023   -1.077474
H      -0.373171    2.053230    0.686877
H       0.363216   -0.316625    0.955280
H      -1.086290   -0.215901   -0.057604
H       0.891890   -2.538254    0.919448
H       1.618863   -3.685290   -0.197007
H       2.431267   -2.138964    0.142998
H      -1.291472   -2.002670   -2.039303
H      -0.657475   -3.602706   -1.613883
H      -1.246102   -2.519678   -0.341011
H       0.806608   -1.783087   -3.314104
H       3.523658   -2.055139   -1.915292
H       3.234338   -1.721442   -3.630494
H       2.774944   -0.524486   -2.394232
H       2.274517   -3.986166   -2.426672
