18

C       0.292833    0.953001    0.481527
O      -0.395917   -0.006928   -0.304551
C       0.382104   -0.552103   -1.302411
C       1.493648   -1.581440   -1.038763
C       0.999457   -2.522692    0.006883
N       1.476667   -2.999131    1.062912
O      -0.217563   -2.770180   -0.621535
C       0.183875   -1.950735   -1.754323
C      -0.152410   -2.463986   -3.112905
H       1.162364    0.506876    0.981066
H       0.629736    1.804949   -0.127429
H      -0.413355    1.310087    1.233360
H       0.657936    0.139770   -2.104216
H       2.511759   -1.472519   -1.384298
H       0.822204   -3.650584    1.499586
H      -1.238896   -2.502966   -3.245878
H       0.261317   -1.805373   -3.881469
H       0.248847   -3.470988   -3.258931
