16

C       0.122332    1.421087   -0.225110
N      -0.232125    0.073439    0.220218
C       0.524279   -0.651434    1.126717
C       0.724978   -2.000561    1.007248
C       1.408292   -2.742042    2.014221
C       1.893071   -2.081483    3.080593
O       1.733749   -0.746444    3.219989
C       1.036755    0.041851    2.319978
O       0.912764    1.212188    2.586317
H       1.055501    1.446667   -0.808200
H      -0.688799    1.792901   -0.856206
H       0.232090    2.073298    0.638177
H      -0.555433   -0.509510   -0.539560
H       0.345926   -2.518599    0.130499
H       1.551672   -3.810552    1.924435
H       2.432877   -2.513008    3.912613
