18

C       0.017812    1.477218   -0.004357
N       0.080222    0.020495    0.001932
C       0.052574   -0.648676   -1.228368
C       0.003038   -1.977309   -1.361215
C       0.065144   -2.857407   -0.178190
C       1.312707   -2.826905    0.672095
C       0.061360   -2.135115    1.167439
C      -0.028805   -0.645440    1.216290
O      -0.203596   -0.051921    2.266313
H       0.856097    1.890340   -0.574306
H      -0.919740    1.829297   -0.450084
H       0.069259    1.818208    1.027812
H       0.061503    0.014567   -2.085503
H      -0.047871   -2.412549   -2.351580
H      -0.465450   -3.802475   -0.235989
H       1.598479   -3.731285    1.196571
H       2.139290   -2.215924    0.327674
H      -0.442882   -2.591176    2.010629
