14

C       0.110855    1.362895   -0.789629
C       0.024068    0.093788    0.029655
O       0.975711   -0.411620    0.574320
C      -1.362301   -0.514759    0.126133
O      -1.451853   -1.888937    0.446177
C      -1.932163   -0.980305    1.427750
C      -1.157479   -0.905963    2.711976
O      -1.660176   -0.501550    3.730071
H       1.118130    1.774722   -0.728817
H      -0.138250    1.151586   -1.836415
H      -0.617849    2.100372   -0.433078
H      -2.084259   -0.166908   -0.614137
H      -3.014096   -0.924488    1.546938
H      -0.112866   -1.258976    2.644089
