17

C       0.961298    0.338177    0.273152
C      -0.504548    0.193722   -0.081077
O      -1.365308    0.873243    0.425019
C      -0.869877   -0.835977   -1.159894
C      -0.150713   -2.170762   -1.054707
C       0.204422   -2.916135   -2.281390
O       1.198137   -2.188872   -1.567890
C      -0.352878   -2.901056    0.175739
C      -0.546547   -3.474173    1.214180
H       1.580576    0.388740   -0.627239
H       1.101574    1.224858    0.892113
H       1.292245   -0.547879    0.826720
H      -1.952569   -0.980869   -1.121878
H      -0.618063   -0.394446   -2.132421
H       0.293532   -3.999497   -2.236831
H      -0.083166   -2.503167   -3.247533
H      -0.713039   -3.987982    2.129093
