19

C      -0.110244    1.509023   -0.280712
C       0.049740    0.023086   -0.049391
C       1.358591   -0.742477   -0.212038
C       2.616533    0.048881   -0.105990
C       2.776248    0.586434    1.103451
C       1.658541    0.173628    2.059466
C       1.058706    1.284588    2.797375
C       0.585262    2.192171    3.428134
C       0.695022   -0.619391    1.154805
H       0.778979    2.072306    0.006538
H      -0.310294    1.708066   -1.339704
H      -0.950807    1.901085    0.300281
H      -0.806157   -0.551621   -0.398514
H       1.353769   -1.667445   -0.778984
H       3.295862    0.185603   -0.940164
H       3.573025    1.250636    1.415350
H       2.074722   -0.520017    2.806646
H       0.158945    2.994334    3.977671
H       0.185492   -1.461182    1.608052
