21

C       0.025874    1.579803    0.012992
C       0.013669    0.047605    0.011805
C       0.662862   -0.518611   -1.263322
C       0.663028   -2.062284   -1.284358
C       1.258805   -2.613779   -0.008259
O       2.162989   -3.421983    0.029502
C       0.678375   -2.062715    1.290795
O       1.368454   -2.573636    2.396639
C       0.712435   -0.522472    1.256898
H       1.052468    1.963603   -0.006209
H      -0.496708    1.981620   -0.861294
H      -0.461099    1.978696    0.908438
H      -1.035797   -0.284138    0.029385
H       0.147060   -0.143327   -2.153800
H       1.698451   -0.158493   -1.327564
H      -0.373252   -2.420569   -1.354677
H       1.214729   -2.464244   -2.137456
H      -0.380600   -2.379736    1.322919
H       2.014757   -3.195572    2.023838
H       1.763008   -0.203190    1.276508
H       0.251071   -0.143741    2.174865
