18

C      -0.105894    1.564340   -0.008849
C       0.184369    0.076333   -0.004287
O       1.411436   -0.308594   -0.714064
C       1.790992   -1.177815    0.375588
C       2.314022   -2.531487    0.024417
C       2.117224   -0.307735    1.537285
O       2.696902    0.950402    1.378778
C       0.655714   -0.640005    1.255963
H      -0.187515    1.931249   -1.037440
H      -1.063817    1.749728    0.489308
H       0.667857    2.125854    0.516368
H      -0.647866   -0.469616   -0.467796
H       3.244337   -2.446323   -0.548719
H       2.527628   -3.104229    0.931519
H       1.592907   -3.090410   -0.580523
H       2.508413   -0.822094    2.411367
H       2.711267    1.108996    0.424665
H       0.017999   -1.143754    1.971517
