17

C      -0.057347    1.518732    0.010904
C       0.072988    0.006971    0.001305
O       1.148214   -0.547149   -0.012317
C      -1.231925   -0.781017    0.009670
C      -1.002468   -2.302226   -0.001050
C      -2.248064   -3.051589    0.006963
C      -3.295055   -3.659137    0.013643
C      -4.471183   -4.343554    0.021390
C      -5.515682   -4.949809    0.028434
H       0.932667    1.975762    0.003594
H      -0.627287    1.858009   -0.861281
H      -0.609799    1.848313    0.897935
H      -1.817546   -0.484968    0.889107
H      -1.834622   -0.475244   -0.854773
H      -0.405409   -2.570508   -0.880261
H      -0.388349   -2.580228    0.863264
H      -6.433017   -5.483931    0.034467
