20

C       0.317815    1.585933   -0.134147
C       0.194698    0.079996   -0.063689
C       1.416977   -0.780678    0.201054
C       0.330281   -0.644585    1.241330
O       0.569225    0.131031    2.378372
C       1.284110   -0.554359    3.382907
C       1.470743    0.436383    4.538595
C       2.197372   -0.154874    5.657322
N       2.774144   -0.638921    6.533593
H       1.019721    1.956508    0.616237
H       0.669777    1.902004   -1.121612
H      -0.647997    2.068654    0.049338
H      -0.539261   -0.345383   -0.743086
H       1.532650   -1.723729   -0.321744
H       2.345631   -0.254860    0.399916
H      -0.313200   -1.505485    1.427165
H       0.729086   -1.439100    3.729604
H       2.259589   -0.898375    3.010968
H       2.012958    1.316496    4.177472
H       0.490155    0.781171    4.882831
