21

C      -0.514749    1.405152    0.185828
C      -0.052352   -0.007558    0.007132
C       0.187769   -0.637419   -1.144706
C       0.652957   -2.059130   -0.955300
C       0.367000   -2.319210    0.545865
C       0.235240   -0.914168    1.195344
C       1.517920   -0.476683    1.953564
C       1.711301   -1.286380    3.212078
O       2.630628   -2.035782    3.422870
H       0.205665    2.001634    0.759988
H      -0.663757    1.901115   -0.776925
H      -1.461941    1.445832    0.739359
H       0.084600   -0.181020   -2.124232
H       0.127266   -2.768457   -1.604531
H       1.720144   -2.161074   -1.197594
H      -0.581690   -2.854443    0.648178
H       1.136015   -2.930990    1.024912
H      -0.595893   -0.888697    1.914221
H       2.402169   -0.584027    1.318729
H       1.423111    0.577616    2.247278
H       0.896828   -1.158077    3.965302
