23

C      -0.081184    1.569488    0.177614
C       0.039738    0.079674    0.032954
C      -0.827079   -0.891837    0.786551
C       0.666486   -0.965790    0.964286
C       1.303216   -1.694593   -0.230205
C       0.648089   -0.634853   -1.184625
C       2.809669   -1.696860   -0.242590
C       3.577843   -2.849569    0.355135
C       3.567500   -2.642210   -1.140476
H       0.860856    2.073558   -0.068569
H      -0.854772    1.973925   -0.487336
H      -0.351172    1.847333    1.202048
H      -1.374324   -0.470034    1.624648
H      -1.357693   -1.688698    0.267555
H       1.136550   -0.831242    1.932719
H       0.940445   -2.721675   -0.370165
H      -0.061087   -1.005303   -1.933249
H       1.407336   -0.034340   -1.694370
H       3.254177   -0.712830   -0.107329
H       4.492045   -2.638326    0.898981
H       3.008353   -3.683431    0.753059
H       2.992429   -3.337863   -1.743202
H       4.474573   -2.288396   -1.617970
