18

C       0.063773    1.442873   -0.127872
N       0.033009   -0.010345   -0.108579
C       0.464115   -0.615527    0.923764
C       0.492573   -2.124271    0.979029
C       0.220672   -2.628537    2.395841
N       1.138558   -1.965393    3.311925
C       1.377518   -0.617546    3.257897
O       1.903085    0.020478    4.147605
N       0.972941   -0.002756    2.067481
H       1.090230    1.840784   -0.093468
H      -0.391422    1.799823   -1.054553
H      -0.494171    1.890272    0.709575
H      -0.236692   -2.508317    0.265417
H       1.487379   -2.465116    0.666212
H      -0.828877   -2.441654    2.669540
H       0.389032   -3.706994    2.454708
H       1.289852   -2.357765    4.227843
H       1.122376    0.994469    2.072605
