17

O      -0.385629    0.099434    0.733514
C      -0.168223    1.203333    0.272350
C      -1.239664    1.965894   -0.509653
C      -1.800667    3.015717    0.398449
C      -1.338001    4.274238    0.485971
C      -0.208176    4.817892   -0.231848
C       1.005186    4.261003   -0.476923
C       1.618893    3.040703    0.009788
C       1.154255    1.835730    0.416307
H      -0.796716    2.426646   -1.397991
H      -2.005374    1.245979   -0.804228
H      -2.642368    2.721107    1.019508
H      -1.887700    4.981881    1.103976
H      -0.321331    5.852812   -0.552049
H       1.709916    4.904474   -0.999987
H       2.702240    3.144045    0.079651
H       1.884058    1.136261    0.816566
