19

C      -0.010414    1.634039    0.172231
C       1.476107    1.223090    0.065962
C       1.135226    0.008291    1.011382
C       0.018183    0.079260   -0.049561
O      -1.060307   -0.748548   -0.288886
C      -1.703432   -0.371447   -1.512619
C      -0.827755    0.248816   -2.583526
C       0.450940    0.607246   -2.431306
C       1.099123    0.270304   -1.128088
H      -0.350891    1.973901    1.153152
H      -0.412790    2.246580   -0.634925
H       2.345202    1.872004    0.145803
H       1.803494   -0.855185    0.962763
H       0.870209    0.264032    2.040138
H      -2.173037   -1.283391   -1.900114
H      -2.523475    0.332538   -1.288289
H      -1.345665    0.415829   -3.525798
H       1.010899    1.045370   -3.253751
H       1.800449   -0.566656   -1.234334
