15

O      -0.882423    1.516981   -0.373711
C       0.032531    1.348277    0.388703
C       1.413370    1.926968    0.191321
C       1.600699    3.003431   -0.912209
C       2.116898    4.012809    0.167640
C       1.871898    2.952965    1.267207
O       0.761385    3.742026    1.790811
C       0.977820    4.751936    0.863397
O       0.391490    5.777472    0.766445
H      -0.086643    0.739305    1.312213
H       2.127844    1.098573    0.119779
H       2.360479    2.748905   -1.651331
H       0.682685    3.290118   -1.426248
H       3.046723    4.548594   -0.006476
H       2.564926    2.667579    2.056116
