18

O      -0.007056    1.402343    0.045350
C       0.041167   -0.009339    0.035009
C      -1.381032   -0.571008   -0.052307
C      -1.370766   -0.419800   -1.616856
C      -1.804362   -1.903062   -1.836273
C      -0.558998   -2.623081   -2.351668
N       0.166820   -2.095319   -1.134026
C       0.184120   -0.629549   -1.376507
C      -1.212769   -2.066863   -0.406159
H       0.882428    1.730128   -0.121655
H       0.710265   -0.407355    0.810313
H      -2.190022   -0.259301    0.606028
H      -1.754990    0.435144   -2.164200
H      -2.831273   -2.126528   -2.124988
H      -0.629841   -3.712967   -2.290676
H      -0.119212   -2.332751   -3.312162
H       0.957116   -0.306616   -2.075411
H      -1.378355   -2.902701    0.270920
