15

C       0.432002    0.462811   -0.715540
C       0.267189    1.675136    0.130835
N       0.815889    0.453807    0.705454
C       0.030447   -0.261728    1.613039
C      -0.888301    0.121413    2.573776
C      -1.249563   -1.086489    3.212124
N      -0.620650   -2.137929    2.701828
N       0.157999   -1.609023    1.728084
H      -0.469753   -0.076633   -0.993700
H       1.257923    0.387381   -1.415660
H       0.965830    2.501904    0.049608
H      -0.747629    1.949723    0.406868
H      -1.228325    1.121071    2.786849
H      -1.948782   -1.226551    4.023939
H       0.772909   -2.205852    1.201592
