23

C       0.019540    1.484418    0.355299
C      -0.056565   -0.026713    0.136895
N       0.460611   -0.493291   -1.155021
C       0.722425   -1.938324   -1.152236
C       2.012519   -2.307590   -0.416622
C      -0.282211   -0.053750   -2.341125
C      -1.819117   -0.218723   -2.309365
C       0.069890    1.332703   -2.714344
N       0.326802    2.405982   -3.056980
H       1.032977    1.851697    0.173916
H      -0.658043    2.042601   -0.294859
H      -0.254435    1.712378    1.390270
H       0.552918   -0.510495    0.904707
H      -1.090209   -0.377558    0.310724
H      -0.123053   -2.509127   -0.725560
H       0.819085   -2.265180   -2.192768
H       2.861556   -1.767872   -0.844816
H       1.965696   -2.074225    0.650774
H       2.198065   -3.382723   -0.506875
H       0.092798   -0.662912   -3.171610
H      -2.243268    0.031421   -3.285377
H      -2.075477   -1.255676   -2.075332
H      -2.281218    0.432371   -1.564457
