15

C      -0.072752    1.570398   -0.296195
C      -0.069171    0.088580   -0.141808
N      -1.088613   -0.675044   -0.193456
C      -0.588488   -2.038000    0.050664
C       0.943405   -1.891130    0.170097
O       1.152670   -0.463829    0.070074
C      -1.258463   -2.592849    1.304978
O      -0.671575   -3.127062    2.209595
H       0.558668    1.863612   -1.140507
H      -1.090942    1.921413   -0.458440
H       0.342615    2.041950    0.599774
H      -0.889920   -2.693471   -0.778955
H       1.314635   -2.243489    1.135189
H       1.494856   -2.377199   -0.637991
H      -2.359624   -2.453284    1.318302
