19

C       0.056596    1.574940   -0.216633
C       0.053841    0.060949    0.009245
O       0.864177   -0.302192    1.113476
C      -1.368003   -0.503504    0.183401
C      -1.391669   -2.048017    0.303424
N      -2.472380   -2.263212    1.252465
C      -2.717177   -1.140849    2.018895
O      -3.449484   -1.050720    2.976459
N      -1.946043   -0.105607    1.467776
H       1.083292    1.930989   -0.330124
H      -0.507802    1.845497   -1.115699
H      -0.385060    2.100691    0.637827
H       0.503592   -0.429039   -0.864145
H       0.343852   -0.096172    1.902639
H      -1.995825   -0.179251   -0.658917
H      -1.593824   -2.525157   -0.659491
H      -0.424381   -2.401205    0.681961
H      -2.635512   -3.161376    1.678004
H      -2.346106    0.815061    1.570592
