23

C      -0.146801    1.419715    0.068068
O       0.135907    0.043767   -0.028453
C       0.662052   -0.547172    1.155437
C      -0.424328   -0.772232    2.210898
C       1.325279   -1.859007    0.730764
C       2.481488   -1.662827   -0.254464
C       3.112614   -2.991877   -0.703523
C       4.177140   -2.779648   -1.754015
O       5.318001   -3.156410   -1.674244
H       0.738138    1.995824    0.381717
H      -0.449665    1.756428   -0.926791
H      -0.964260    1.638233    0.770302
H       1.434255    0.123168    1.573568
H      -1.201318   -1.436801    1.819826
H       0.002892   -1.228362    3.109536
H      -0.897022    0.167203    2.510866
H       1.681326   -2.378687    1.628632
H       0.558301   -2.500185    0.276862
H       2.110476   -1.112257   -1.125418
H       3.254344   -1.034608    0.207510
H       3.553037   -3.539369    0.135370
H       2.331636   -3.625201   -1.150432
H       3.823315   -2.215897   -2.650411
