18

C       0.234291    1.607470   -0.222675
C      -0.115131    0.151198    0.128513
C       0.550477   -0.327759    1.373520
C       0.083018   -0.866940    2.533013
N      -1.212110   -1.234199    2.958134
C       1.269131   -1.099508    3.299926
N       1.282824   -1.593334    4.593270
N       2.353714   -0.731721    2.659492
O       1.898557   -0.246866    1.422498
H       1.312837    1.723276   -0.352932
H      -0.260068    1.907564   -1.151065
H      -0.083266    2.289071    0.572017
H      -1.198736    0.046172    0.257698
H       0.160750   -0.501191   -0.710246
H      -1.892856   -1.166981    2.211252
H      -1.533648   -0.659769    3.731672
H       0.571339   -2.297990    4.741901
H       2.196976   -1.912012    4.886225
