9

O       0.055673   -0.080289    0.002941
C      -0.022849    1.127111    0.006744
C       1.186626    1.969037    0.000900
N       2.139725    2.623665   -0.003732
C      -1.249751    1.866839    0.017087
C      -2.296816    2.480221    0.025863
C      -3.463615    3.168758    0.035656
C      -4.504045    3.781870    0.044380
H      -5.418692    4.323556    0.052061
