15

N      -0.002309    1.378421    0.103189
C       0.059031    0.015864    0.022598
N       1.174756   -0.611084   -0.001059
C       1.163960   -1.995565   -0.017818
C       2.302857   -2.782923    0.003326
N       3.645130   -2.439779    0.124845
N       1.821978   -4.047481   -0.024549
N       0.461977   -4.062096   -0.073030
N       0.074756   -2.821841   -0.059192
H       0.855329    1.880072   -0.072634
H      -0.849253    1.833845   -0.192145
H      -0.911614   -0.486773    0.024327
H       3.725311   -1.428369    0.119831
H       4.234073   -2.825972   -0.604936
H       2.326531   -4.917608    0.013655
