17

C       0.311828    0.479347   -0.695824
O      -0.237955    0.265326    0.601357
C       0.522874   -0.427958    1.489310
C       1.957794   -0.813087    1.395397
C       0.954089   -1.934797    1.609881
O       0.535607   -1.983943    2.970923
C       0.005960   -0.633462    2.905859
C       0.738183   -3.063179    0.710520
O       1.070885   -3.077440   -0.456964
H       0.535774   -0.470999   -1.191900
H      -0.451383    1.016727   -1.260340
H       1.221757    1.089796   -0.644774
H       2.379146   -0.816945    0.396125
H       2.655879   -0.594375    2.200966
H       0.415153    0.014808    3.688341
H      -1.087720   -0.640333    2.948051
H       0.205197   -3.915109    1.184213
