15

C      -0.015483    1.569491    0.039979
N       1.468552    1.769975    0.123525
C       1.949298    0.716872   -0.440178
O       2.531507   -0.259722    0.389156
C       1.231243   -0.918603    0.484139
C       0.829423   -1.513229   -0.874413
N      -0.645917   -1.239875   -0.538043
C       0.081161    0.022482   -0.187385
C       1.072023   -0.067012   -1.393012
H      -0.442634    1.913060    0.986674
H      -0.564687    2.051007   -0.782330
H       1.090038   -1.433609    1.430456
H       1.131273   -2.465029   -1.309059
H      -1.166791   -1.101058   -1.408354
H       0.763140    0.304081   -2.365781
