18

C       0.482328    1.562120   -0.618771
N       0.854423    0.184857   -0.871320
C       0.092831   -0.715499   -0.405035
N       0.365683   -2.051269   -0.610871
C       1.551028   -2.533589   -1.296618
C       1.227005   -4.031179   -1.402425
O       0.220093   -4.269078   -0.403492
C      -0.352521   -3.089946   -0.031110
N      -1.357470   -2.945164    0.721780
H       1.294407    2.072379   -0.087458
H       0.347804    2.089592   -1.570653
H      -0.440877    1.673031   -0.028317
H      -0.819321   -0.557705    0.178983
H       1.667782   -2.045559   -2.266258
H       2.453788   -2.332485   -0.707509
H       0.816777   -4.292480   -2.384050
H       2.080203   -4.676942   -1.188269
H      -1.729156   -3.850148    0.998570
