19

O       0.605571    0.499842    0.773063
C      -0.015601    0.165589   -0.454137
C      -1.368843   -0.466430   -0.225514
O      -2.228151    0.401469    0.485689
C      -1.978437   -1.424790   -1.217455
C      -1.534272   -1.907229    0.151153
C      -0.350935   -2.848061    0.329573
C      -0.735660   -4.253260    0.236715
C      -1.070346   -5.405172    0.163209
H      -0.085253    0.905881    1.311492
H      -0.144670    1.058125   -1.093113
H       0.658880   -0.511447   -0.985891
H      -2.516434    1.093893   -0.121303
H      -3.043990   -1.346807   -1.402629
H      -1.385668   -1.714342   -2.080222
H      -2.342872   -2.078633    0.854674
H       0.417682   -2.638356   -0.423722
H       0.122625   -2.656902    1.300690
H      -1.356701   -6.425305    0.097886
