18

C      -0.130392    1.515544    0.041237
C      -0.032455    0.007158    0.171395
O      -1.298272   -0.553758   -0.197148
C      -1.349285   -1.905903   -0.118866
C      -2.585153   -2.764473    0.117417
C      -1.935726   -3.891278   -0.721325
C      -0.722965   -3.066634   -0.967176
N      -0.765780   -3.988949    0.222719
C      -1.388168   -2.866356    1.050998
H       0.820688    1.981116    0.315953
H      -0.371489    1.798667   -0.987141
H      -0.912063    1.908292    0.697570
H       0.752889   -0.393770   -0.485255
H       0.211581   -0.291310    1.200353
H      -3.602357   -2.451598    0.302264
H      -2.336454   -4.752515   -1.243734
H       0.053363   -3.132547   -1.720770
H      -1.292318   -2.757932    2.123786
