21

C       0.000183    1.623821   -0.018020
C       0.094287    0.102642   -0.008404
C       0.808934   -0.663326   -1.122995
C       2.297461   -0.792746   -0.733411
C       2.489598   -0.112388    0.620985
C       1.070410   -0.655213    0.950786
O       0.698217   -0.996268    2.244649
C       1.266756   -1.749594   -0.180475
C       1.132470   -3.235721   -0.174833
H       0.963721    2.095854   -0.229936
H      -0.704863    1.963080   -0.784960
H      -0.360998    2.005666    0.944911
H      -0.900224   -0.335387    0.138047
H       0.495951   -0.780735   -2.153623
H       3.050261   -1.000854   -1.483429
H       3.239286   -0.637332    1.219983
H       2.666809    0.968126    0.668856
H       0.698918   -0.197654    2.784136
H       0.116188   -3.546798    0.092278
H       1.358045   -3.647591   -1.164626
H       1.818223   -3.698943    0.543552
