20

C      -0.014264    1.572429    0.007722
C      -0.032850    0.117365    0.047301
C      -0.048284   -1.088099    0.086277
C      -0.000399   -2.522866    0.064321
C      -0.446322   -3.390699    1.203154
C      -1.265756   -2.784963    2.330240
C      -2.454255   -2.088755    1.623651
C      -2.493061   -2.722823    0.208452
N      -1.204118   -3.392845   -0.055117
H       1.013060    1.953439    0.017616
H      -0.499360    1.955092   -0.897323
H      -0.533986    2.003530    0.870615
H       0.819522   -2.912492   -0.536599
H       0.137878   -4.282495    1.417428
H      -1.609152   -3.590853    2.987300
H      -0.684190   -2.090347    2.943643
H      -3.394304   -2.241667    2.160424
H      -2.282500   -1.014307    1.558670
H      -3.262025   -3.499567    0.144716
H      -2.698563   -1.986734   -0.574096
