18

O      -0.046669    1.212160    0.614891
C       0.012738    0.013002   -0.147229
C      -1.362360   -0.609430   -0.099521
C      -1.617468   -2.087103   -0.134628
N      -1.930950   -1.282501    1.062718
C      -0.948682   -1.636018    2.129867
C       0.009097   -2.717807    1.591178
C      -0.469640   -3.011308    0.160777
O      -0.051565   -3.875847   -0.566384
H       0.779254    1.689572    0.490342
H       0.255161    0.218208   -1.201235
H       0.790518   -0.660203    0.234450
H      -2.102039    0.003127   -0.612727
H      -2.431138   -2.481521   -0.735368
H      -0.436363   -0.727052    2.453028
H      -1.527108   -2.012129    2.976874
H       1.065226   -2.430740    1.579880
H      -0.052698   -3.649430    2.161630
