16

C      -0.073011    1.545986   -0.035167
C       0.026412    0.058161    0.006432
C       0.083998   -1.058754   -0.964669
O       1.210541   -1.713903   -0.384136
C       0.904746   -0.977171    0.836049
C      -0.418742   -1.586232    1.291275
N      -0.891218   -2.111870    2.340665
O       0.119353   -2.278133    3.317948
C      -1.066522   -1.054779    0.071483
H       0.886207    2.000062   -0.306120
H      -0.815603    1.860201   -0.775667
H      -0.379188    1.950611    0.935410
H      -0.072948   -1.114369   -2.034506
H       1.752120   -0.803740    1.491083
H      -0.369180   -2.691516    4.037226
H      -2.113795   -0.990236   -0.187577
