20

C       0.151514    1.526939   -0.541871
C       0.447715    0.056764   -0.308873
O       0.204878   -0.643134   -1.533244
C       0.487456   -1.996217   -1.448982
C       0.720869   -2.707531   -2.743436
C       1.880552   -2.490841   -1.788181
C       2.979126   -1.485584   -2.040103
N       3.288743   -1.256018   -3.347139
O       3.557819   -0.926410   -1.125711
H       0.815109    1.933363   -1.310307
H      -0.882768    1.668052   -0.869337
H       0.304707    2.093779    0.381301
H       1.488476   -0.094935    0.000969
H      -0.207477   -0.351637    0.477631
H      -0.042585   -2.524346   -0.654661
H       0.328597   -3.709453   -2.876538
H       0.673065   -2.078082   -3.625920
H       2.232708   -3.345849   -1.218860
H       2.901856   -1.811311   -4.088586
H       4.055840   -0.635966   -3.549679
