20

C      -0.365709    1.493821    0.072510
C       0.101401    0.030110    0.047440
C       0.615079   -0.343687   -1.359125
C       0.852494   -1.811669   -1.603249
C       1.405069   -2.714780   -0.794655
C       2.005842   -2.562789    0.574801
C       1.904114   -1.270117    1.335831
C       1.120747   -0.210770    1.139311
H       0.466170    2.174248   -0.144271
H      -1.148255    1.672744   -0.671463
H      -0.767515    1.762257    1.054919
H      -0.775109   -0.602879    0.247455
H      -0.116539    0.011150   -2.095229
H       1.534289    0.225549   -1.557787
H       0.525068   -2.169470   -2.577803
H       1.481535   -3.733157   -1.174360
H       1.602306   -3.362076    1.219719
H       3.073500   -2.826055    0.494056
H       2.560232   -1.239913    2.205031
H       1.209283    0.598867    1.862782
