13

C       0.907748    0.917926   -0.164044
O      -0.119017    0.223013   -0.861752
C      -0.415409    0.690193    0.453257
C      -0.600521   -0.354550    1.489032
C      -0.220466   -1.686531    1.312142
N      -0.380510   -2.560762    2.290505
N      -0.921153   -2.138558    3.436531
N      -1.323578   -0.899357    3.588981
N      -1.177163    0.010574    2.628759
H       1.756401    0.313271    0.151431
H       1.145546    1.911241   -0.539316
H      -1.109440    1.525051    0.523604
H       0.197485   -2.047452    0.377942
