19

C       0.333081    1.294838   -0.207333
C      -0.110582   -0.150195    0.046281
C       0.273661   -0.619739    1.453798
N      -1.561102   -0.229405   -0.095748
C      -2.027541   -0.984944   -0.977561
O      -3.378616   -1.073775   -1.151730
C      -3.814270   -1.981050   -2.144999
C      -3.701506   -3.388137   -1.725087
N      -3.603227   -4.492313   -1.401107
H       1.417155    1.389368   -0.089722
H       0.067094    1.614161   -1.219349
H      -0.155386    1.971190    0.500657
H       0.391869   -0.804198   -0.689097
H      -0.216084    0.003440    2.208181
H      -0.035218   -1.656108    1.617544
H       1.356924   -0.555374    1.596743
H      -1.440373   -1.611040   -1.666095
H      -4.864833   -1.746981   -2.333121
H      -3.264840   -1.848486   -3.086513
