18

C      -0.110387   -1.095462   -0.013761
C      -0.023590    0.102535    0.034738
C       0.041375    1.534454    0.109010
C       0.643928    2.194290    1.302771
N       1.404391    2.129374   -0.001399
C       1.180373    3.616430   -0.157012
C       0.484298    3.690046    1.208908
C      -0.641939    4.556449    1.691711
C       0.738500    4.686013    2.297514
H      -0.176264   -2.153909   -0.065810
H      -0.771045    2.057814   -0.393868
H       0.950028    1.623989    2.174315
H       2.144444    4.129277   -0.195226
H       0.592050    3.880303   -1.042682
H      -0.987302    5.350459    1.037354
H      -1.423568    4.097282    2.288255
H       0.890309    4.312335    3.305182
H       1.326366    5.565826    2.055132
