21

C       0.149978    1.326517   -0.266934
O       0.055940   -0.073355   -0.146968
C      -1.263263   -0.581306    0.020303
C      -1.988122   -0.719610   -1.318010
C      -1.073237   -1.951598    0.712164
O      -0.192260   -2.764022   -0.051566
C      -0.622204   -1.790783    2.099860
C      -0.247181   -1.663326    3.237040
C       0.207717   -1.519886    4.612330
H       1.211838    1.572145   -0.347881
H      -0.364234    1.707644   -1.161147
H      -0.265271    1.835597    0.615866
H      -1.829899    0.075401    0.697367
H      -2.026071    0.235930   -1.848345
H      -1.472151   -1.452144   -1.943192
H      -3.018670   -1.055362   -1.162883
H      -2.036356   -2.476016    0.705041
H       0.610900   -2.238138   -0.159509
H       0.905151   -2.320461    4.882636
H       0.722466   -0.565209    4.767334
H      -0.631679   -1.562586    5.315275
