22

C      -0.451543    1.441017   -0.000996
C      -0.123102   -0.020958   -0.023547
C       0.175564   -0.747085   -1.102358
C       0.495567   -2.183476   -0.773174
C       0.008375   -2.307993    0.689522
C      -0.033522   -0.858014    1.256898
C       1.271309   -0.522996    2.012545
C      -1.232975   -0.653084    2.195831
H       0.244273    2.002199    0.635535
H      -0.408913    1.872612   -1.004801
H      -1.455582    1.623368    0.401367
H       0.224120   -0.352385   -2.112764
H      -0.000557   -2.898285   -1.439923
H       1.573546   -2.378493   -0.868962
H      -1.005359   -2.722851    0.696046
H       0.631641   -2.972222    1.296044
H       2.150509   -0.718842    1.390459
H       1.301988    0.530070    2.312194
H       1.356844   -1.127560    2.922579
H      -1.181270   -1.346665    3.042783
H      -1.258750    0.362370    2.605916
H      -2.179296   -0.831112    1.674052
