15

O      -0.071593    1.444707   -0.401131
C      -0.038243    0.229015    0.325406
C      -1.361236   -0.488829    0.228291
O      -1.632711   -1.107082   -1.032766
C      -1.477652   -1.961785    0.115132
C      -0.343799   -2.840666    0.147382
C       0.578715   -3.623894    0.192629
C       1.622516   -4.493369    0.241418
C       2.549084   -5.266489    0.285285
H      -0.236265    1.216571   -1.323037
H       0.766268   -0.435185   -0.017793
H       0.163087    0.496712    1.368067
H      -2.214278    0.044473    0.650605
H      -2.410709   -2.412140    0.453938
H       3.364784   -5.945433    0.323109
