18

N      -0.088936    1.481901    0.055077
C      -0.066807    0.030656   -0.058625
C      -1.476140   -0.559590    0.002429
C      -1.402707   -2.065256   -0.195020
O      -2.719213   -2.589102   -0.168761
C      -0.753529   -2.354477   -1.550330
O       0.516174   -1.715099   -1.744930
C       0.757558   -0.469864   -1.263680
O       1.667269    0.168821   -1.720139
H       0.852653    1.824215   -0.122320
H      -0.656897    1.865201   -0.697385
H       0.491748   -0.354973    0.809297
H      -1.942923   -0.311784    0.958779
H      -2.106129   -0.131152   -0.788907
H      -0.787117   -2.505426    0.605775
H      -2.667717   -3.550200   -0.148189
H      -0.562490   -3.423788   -1.681813
H      -1.442699   -2.031156   -2.340654
