20

C      -0.150826    1.572656    0.094615
C       0.031600    0.070965   -0.018451
C       0.807551   -0.604518   -1.159275
C       2.120230   -0.144715   -0.446907
C       3.195645   -1.209977   -0.584416
C       3.428784   -2.086665    0.624696
C       2.358191   -2.447695   -0.378410
C       1.000151   -1.800316   -0.172062
N       1.210303   -0.563835    0.740180
H       0.726878    2.142282   -0.219204
H      -0.994243    1.892115   -0.527148
H      -0.378835    1.845714    1.130316
H      -0.905031   -0.429916    0.256028
H       0.583950   -0.633002   -2.233472
H       2.429516    0.899563   -0.450607
H       3.950143   -1.118952   -1.356575
H       4.326777   -2.695761    0.609619
H       3.133646   -1.725409    1.602046
H       2.444897   -3.338007   -0.989474
H       0.146616   -2.423231    0.103727
