16

C      -0.083492    1.463110    0.004660
N       0.021939    0.020186    0.015295
C      -0.002383   -0.828643   -1.056577
N      -0.161975   -0.346539   -2.362544
N       0.046424   -2.091893   -0.688748
C       0.105939   -2.068023    0.682257
O       0.163046   -3.200087    1.441085
C       0.109226   -0.787033    1.142365
O       0.174420   -0.204004    2.372580
H       0.899222    1.946128    0.057543
H      -0.582841    1.764719   -0.918173
H      -0.673389    1.790723    0.863251
H       0.660373    0.140277   -2.707849
H      -0.345283   -1.132378   -2.975674
H       0.194668   -3.937064    0.821092
H       0.223806   -0.912673    3.022645
