15

N      -0.373076    1.307644   -0.471526
C       0.100056    0.095273    0.002268
O       1.248364   -0.116093    0.289340
N      -0.955085   -0.833372    0.175551
C      -0.821171   -2.191056    0.443466
O       0.218972   -2.799348    0.425505
C      -2.149177   -2.895634    0.729443
C      -2.335268   -4.080664   -0.210519
O      -3.380401   -4.350122   -0.739159
H       0.367237    1.947782   -0.717519
H      -1.154968    1.307768   -1.109048
H      -1.890242   -0.457387    0.189948
H      -2.065429   -3.301329    1.746126
H      -3.034351   -2.257004    0.682579
H      -1.415402   -4.680029   -0.363410
