15

O      -0.133444    1.471487   -0.108000
C      -0.025003    0.078771    0.010444
C      -1.371021   -0.642700    0.001418
O      -1.971837   -0.654983   -1.288389
C      -1.312422   -1.855938   -0.837291
C       0.066827   -1.929432   -1.432257
O       0.555164   -2.859941   -2.020680
C       0.783416   -0.588014   -1.142151
O       0.734564    0.270780   -2.270332
H      -0.230721    1.655516   -1.051647
H       0.472488   -0.126016    0.965755
H      -2.054567   -0.555862    0.841980
H      -1.930580   -2.738636   -0.708992
H       1.820827   -0.793068   -0.849030
H       1.096881   -0.200110   -3.028307
