19

C       0.094733   -1.234264    0.074109
C       0.027253   -0.034198    0.042708
C      -0.039116    1.423255    0.026060
C      -0.784321    1.983308    1.258793
C      -1.016164    3.492113    1.107221
C       0.257529    4.236043    0.775328
O       1.401261    3.912011    1.568877
C       1.409580    3.532199    0.184502
C       1.377540    2.041187   -0.099584
H       0.148473   -2.294453    0.094870
H      -0.613331    1.724993   -0.862554
H      -1.740914    1.466936    1.376217
H      -0.193278    1.784032    2.157922
H      -1.743835    3.683731    0.306780
H      -1.448056    3.904213    2.027030
H       0.143804    5.302217    0.572289
H       2.111913    4.111100   -0.415812
H       2.055050    1.542209    0.601827
H       1.767122    1.849500   -1.104342
