21

C       0.011289    1.537401    0.002151
C       0.005488    0.021962    0.033583
C      -0.863901   -0.659669    1.060114
C       0.641685   -0.679502    1.222778
C       1.408463   -1.993370    1.074427
C       1.736096   -2.354571   -0.392075
C       0.547101   -2.092177   -1.299049
O      -0.003105   -2.956599   -1.941010
C       0.115275   -0.632890   -1.341897
H       0.947323    1.923879   -0.418635
H      -0.811969    1.921532   -0.611958
H      -0.101834    1.955557    1.007331
H      -1.451620   -0.042469    1.731628
H      -1.346527   -1.592436    0.780531
H       1.031557   -0.016016    1.989233
H       2.344873   -1.938265    1.638081
H       0.831358   -2.810947    1.521438
H       2.563814   -1.720824   -0.737248
H       2.038028   -3.399577   -0.488311
H      -0.823944   -0.557760   -1.898784
H       0.882931   -0.101636   -1.924787
