17

C       0.225729    1.518715   -0.400675
C       0.004210    0.088502    0.025976
N       1.157473   -0.816955    0.032333
C       0.492321   -0.515592    1.308523
C       1.270701    0.190840    2.368318
N       0.819880    0.027065    3.565983
O       1.565998    0.700968    4.519930
C       2.436623    0.948902    2.060543
C       3.435747    1.579575    1.831547
H       1.190623    1.890751   -0.055071
H       0.201669    1.593894   -1.493283
H      -0.563401    2.164943   -0.001514
H      -0.942869   -0.332811   -0.313257
H       0.906596   -1.748244   -0.286626
H      -0.159705   -1.267240    1.746440
H       1.113238    0.466537    5.337847
H       4.317486    2.132029    1.618052
