16

O      -0.085088    1.457410   -0.044379
C       0.006847    0.032265   -0.003334
C       0.666162   -0.486457    1.269663
C      -0.139008   -1.292759    1.958873
C      -1.475372   -1.431688    1.289907
O      -2.100770   -2.677239    1.248399
C      -2.284905   -0.156255    1.207111
C      -1.390073   -0.573633    0.054590
H       0.810941    1.809488   -0.046810
H       0.542902   -0.325801   -0.896958
H       1.659955   -0.170916    1.570805
H       0.091035   -1.778415    2.901393
H      -2.635660   -2.769115    2.043767
H      -3.350019   -0.272124    1.032231
H      -1.997609    0.696447    1.811177
H      -1.869257   -0.894864   -0.861003
