23

C      -0.063087    1.543730   -0.180716
C       1.457847    1.645829    0.112862
C       1.441052    0.189068    0.666259
C       1.558837    0.058769    2.183649
C       1.347123   -1.370987    2.701226
O      -0.003439   -1.784176    2.776263
C      -0.672779   -1.977839    1.542692
C      -1.093246   -0.666103    0.863612
C       0.010934    0.006842    0.048380
H      -0.670269    2.040462    0.582562
H      -0.405283    1.885650   -1.160650
H       2.059842    1.744904   -0.794235
H       1.770602    2.423653    0.815305
H       2.193212   -0.466013    0.212426
H       2.565084    0.383597    2.482669
H       0.853373    0.723767    2.697717
H       1.928691   -2.077056    2.082057
H       1.721806   -1.449953    3.727193
H      -0.056295   -2.588214    0.860428
H      -1.562999   -2.564472    1.792956
H      -1.952751   -0.863561    0.209424
H      -1.455312    0.003249    1.653455
H       0.106637   -0.513813   -0.911291
