16

O      -0.067720    0.261337    0.455222
C       0.059683    1.413482    0.089105
C       1.311983    1.986148   -0.392263
C       1.550162    3.321025   -0.510318
C       1.465822    4.134299    0.779537
C       3.015998    3.757077    0.832235
C       3.072396    3.570420   -0.630127
N       3.559329    2.482140    0.187217
C       2.665002    1.330082   -0.127143
H      -0.806974    2.109900    0.072519
H       1.406835    5.222677    0.678926
H       0.783039    3.777955    1.553148
H       3.724629    4.261000    1.480556
H       3.637324    4.058781   -1.414565
H       2.550670    0.641868    0.715607
H       3.132487    0.779331   -0.951142
