21

C      -0.052126    1.696317    0.019699
C       0.054437    0.172853   -0.043347
C      -1.351234   -0.487725   -0.073205
C      -2.167909   -0.209232    1.100662
C      -2.853492    0.026156    2.059390
C       0.907588   -0.323334   -1.238517
C       1.732118   -1.471283   -0.639700
C       1.933625   -0.973080    0.792589
O       0.731283   -0.296440    1.135980
H       0.945105    2.137759    0.102541
H      -0.530645    2.092386   -0.882808
H      -0.641574    2.002424    0.887100
H      -1.879165   -0.147214   -0.973605
H      -1.220975   -1.571742   -0.176705
H      -3.451661    0.228707    2.912682
H       0.292775   -0.627296   -2.089596
H       1.568811    0.479753   -1.580353
H       1.161539   -2.405954   -0.640593
H       2.671728   -1.650078   -1.168313
H       2.095180   -1.773797    1.520988
H       2.793582   -0.285817    0.848244
