23

C      -0.035198    1.469924    0.054873
C      -0.007298    0.014652    0.004819
C       0.030491   -1.188505   -0.030385
C       0.043799   -2.656551   -0.076618
C      -1.414202   -3.165652    0.006778
C       0.679005   -3.112292   -1.409995
C       0.870254   -3.169474    1.154064
C       0.867959   -4.688054    1.347458
O       2.202086   -2.673030    1.126484
H       0.776389    1.860939    0.678630
H       0.077091    1.906110   -0.944161
H      -0.979420    1.838976    0.471027
H      -2.023156   -2.688085   -0.765336
H      -1.465731   -4.248256   -0.141874
H      -1.858355   -2.926171    0.978014
H       1.703058   -2.740486   -1.503445
H       0.686331   -4.203706   -1.495941
H       0.109034   -2.713500   -2.253257
H       0.423946   -2.704270    2.040309
H       1.286912   -5.208938    0.478488
H       1.486645   -4.933455    2.214996
H      -0.136044   -5.082167    1.523085
H       2.695332   -3.183593    0.476028
