14

O       0.236427    1.289161    0.008805
C      -0.013142   -0.086881    0.001500
C      -1.531546   -0.304039    0.015326
O      -2.339572    0.579013    0.027548
N      -1.845204   -1.675645    0.011025
C      -3.115498   -2.259401    0.019580
O      -4.159808   -1.660912    0.032433
C      -3.034071   -3.716184    0.011011
C      -2.996173   -4.918028    0.004216
H       1.188741    1.421901   -0.005484
H       0.393055   -0.590196   -0.893465
H       0.411230   -0.602827    0.880759
H      -1.073454   -2.327491    0.000481
H      -2.982585   -5.981168   -0.001602
