21

C       0.426363    1.332303   -0.416766
C       0.029491   -0.114064   -0.117554
O       0.962231   -0.728304    0.769666
C      -1.399424   -0.231489    0.421691
C      -2.517823   -0.056307   -0.646832
C      -2.679689   -1.611815   -0.701513
C      -1.870673   -1.695696    0.635475
C      -4.016869   -2.164826   -0.740902
C      -5.134556   -2.610045   -0.753963
H       1.451752    1.373480   -0.793508
H      -0.235259    1.788340   -1.159712
H       0.371821    1.941264    0.494654
H       0.111913   -0.704676   -1.039788
H       0.953428   -0.227340    1.593238
H      -1.495235    0.419167    1.299343
H      -3.411372    0.422959   -0.242354
H      -2.249395    0.436454   -1.584924
H      -2.089125   -2.023878   -1.526251
H      -1.087119   -2.452872    0.692983
H      -2.536509   -1.801813    1.494250
H      -6.118217   -3.008743   -0.771540
