15

O       0.010246   -0.052340    0.048520
C      -0.026822    1.148430    0.013256
N      -1.164254    1.910822    0.037064
C      -1.121778    3.343568   -0.008551
C      -0.093129    3.961827   -0.998158
N      -0.083910    5.180843   -0.108199
C      -0.015845    4.018553    0.852296
C       0.994462    3.306142   -0.095781
O       1.119592    1.892865   -0.057671
H      -2.034334    1.409867    0.089241
H      -2.112726    3.793584    0.019004
H      -0.142817    4.019558   -2.085377
H       0.835123    5.632023   -0.160413
H       0.025072    4.142779    1.934304
H       2.004753    3.715964   -0.150553
