18

C       0.005924    1.445956    0.041595
N      -0.030986   -0.001067    0.023403
C      -0.010674   -0.797906   -1.107645
C       0.010523   -2.126104   -0.731454
C       0.007380   -2.131805    0.688226
C      -0.013793   -0.832694    1.107053
C      -0.024111   -0.728580    2.594490
O      -0.007977   -2.099095    3.011757
C       0.008177   -3.014725    1.894107
H       0.996858    1.823190    0.319856
H      -0.242373    1.823439   -0.952074
H      -0.728126    1.838911    0.751453
H      -0.014599   -0.344441   -2.086855
H       0.016960   -2.968602   -1.405813
H       0.852986   -0.209238    3.013128
H      -0.920461   -0.232402    3.000933
H      -0.872418   -3.670146    1.963591
H       0.900406   -3.652699    1.975575
