18

C      -0.600709    0.899344    0.097817
O       0.547443    0.024010    0.102083
C       0.969389   -0.438256   -1.172445
C       2.112379   -1.407873   -1.052332
C       0.734639   -1.944831   -1.308979
N       0.053031   -2.460373   -0.088740
H       0.070788   -1.595020    0.525010
H      -0.914205   -2.723300   -0.277269
H       0.528396   -3.242435    0.363077
C       0.875264    0.377974   -2.516129
O       0.585779    1.576376   -2.419265
O       1.135855   -0.360063   -3.482238
H      -0.419234    1.713463   -0.603825
H      -1.508767    0.355983   -0.202928
H      -0.709049    1.246369    1.127518
H       2.791732   -1.446434   -1.893273
H       2.544321   -1.562072   -0.066164
H       0.436039   -2.388193   -2.247432
