17

C      -0.298341    1.532280    0.081028
C      -0.037997    0.032766   -0.007802
C       0.745359   -0.474320   -1.287501
N       1.791560   -0.960785   -0.362185
C       2.943119   -1.573455   -0.014397
N       3.062673   -1.551684    1.311426
C       1.957722   -0.917455    1.811471
O       1.783470   -0.738510    3.141219
C       1.144175   -0.536438    0.771482
H       0.619232    2.102075   -0.096181
H      -1.049212    1.845207   -0.652627
H      -0.669546    1.797142    1.075689
H      -0.970909   -0.521106    0.140770
H       0.263499   -1.270691   -1.859609
H       1.093079    0.314307   -1.960022
H       3.650166   -2.005474   -0.703909
H       2.556233   -1.132143    3.564307
