21

C       0.028320    1.543387   -0.087766
C       0.034545    0.012954    0.004729
C      -1.405189   -0.554069    0.088866
C      -2.143005   -0.113884    1.266580
C      -2.733221    0.249862    2.248899
C       0.777542   -0.642713   -1.174604
C       2.253107   -0.324790   -1.220249
C       3.010376   -0.293882   -2.477586
O       2.644848    0.917281   -1.814794
H       1.043281    1.945628   -0.109404
H      -0.474064    1.873164   -1.005111
H      -0.503198    1.978044    0.763010
H       0.548879   -0.277166    0.931317
H      -1.957140   -0.265436   -0.816606
H      -1.364063   -1.651188    0.082872
H      -3.263757    0.568573    3.111518
H       0.669174   -1.734452   -1.109525
H       0.321508   -0.331977   -2.123365
H       2.806473   -0.563569   -0.309006
H       4.074590   -0.525605   -2.479041
H       2.493550   -0.485768   -3.417403
