18

C       0.152361    1.470018    0.109718
C       0.252979   -0.049291   -0.046050
C       0.255153   -0.483668   -1.517078
N       0.337208   -1.923693   -1.693006
C       1.495083   -2.557882   -2.047469
C       1.407141   -4.076107   -2.110649
O       2.527094   -1.960990   -2.297652
H       0.995511    1.973060   -0.375804
H      -0.768196    1.856973   -0.341805
H       0.152842    1.761440    1.164069
H       1.170166   -0.418364    0.427019
H      -0.584038   -0.532952    0.475165
H      -0.646858   -0.111427   -2.019703
H       1.122888   -0.064567   -2.032403
H      -0.463866   -2.482081   -1.449278
H       0.393043   -4.466171   -1.988660
H       1.806282   -4.409261   -3.071415
H       2.044183   -4.499172   -1.328441
