18

C       0.232430    1.473615    0.067665
C      -0.051874   -0.026442   -0.048371
C       0.678214   -0.664697   -1.282090
C       1.884344   -1.264730   -0.625931
N       3.031471   -1.801505   -1.011502
N       3.599709   -2.174738    0.156114
C       2.839049   -1.887956    1.268213
C       1.707388   -1.289829    0.766912
N       0.455098   -0.781789    1.144073
H       1.311013    1.660127    0.111864
H      -0.173667    2.015107   -0.793244
H      -0.226975    1.893063    0.969911
H      -1.132663   -0.182087   -0.122160
H       0.052366   -1.433073   -1.750960
H       0.902426    0.085415   -2.046052
H       4.515164   -2.588269    0.138814
H       3.180937   -2.127687    2.261376
H       0.447416   -0.221792    1.987814
