19

C       0.579729    1.319396   -0.085636
O       0.585443   -0.088090   -0.036344
C       0.095382   -0.576954    1.197835
C       0.115694   -2.033186    1.207247
C       0.109907   -3.236607    1.232937
C       0.145483   -4.692544    1.264981
C       1.555259   -5.244628    1.607581
C       1.584445   -6.700745    1.640192
C       1.574376   -7.902508    1.659513
H       1.216983    1.760313    0.697888
H       0.969869    1.610067   -1.063462
H      -0.436366    1.730104    0.029225
H       0.705167   -0.188048    2.032646
H      -0.934325   -0.216817    1.370947
H      -0.573178   -5.070038    2.001703
H      -0.169448   -5.097487    0.296321
H       2.273032   -4.869844    0.869146
H       1.870882   -4.840331    2.576135
H       1.582894   -8.964009    1.679828
