20

O       0.075748    1.397944    0.103834
C       0.012584   -0.023763    0.041162
C      -1.425327   -0.561749    0.069051
C      -2.166440   -0.289171   -1.222512
N      -2.005232    1.076494   -1.763476
C      -1.411681   -0.071175   -2.487948
C       0.108404   -0.110787   -2.526856
C       0.782092   -0.520855   -1.194215
O       2.114890   -0.046233   -1.146012
H      -0.598689    1.718819   -0.522178
H       0.548962   -0.383732    0.926138
H      -1.398672   -1.645029    0.242220
H      -1.960941   -0.112274    0.913299
H      -3.155093   -0.736189   -1.302415
H      -2.854234    1.400288   -2.216176
H      -1.913048   -0.356480   -3.409705
H       0.440169   -0.796153   -3.312740
H       0.478363    0.881402   -2.807483
H       0.841255   -1.615599   -1.143424
H       2.036070    0.870812   -0.846237
