19

C      -0.043869    1.542931   -0.010629
C       0.102798    0.024143    0.009400
C       0.934973   -0.542658   -1.174146
N       1.481078   -1.764721   -0.605452
C       2.094374   -2.902800   -1.029514
N       2.429463   -3.668244   -0.010164
C       2.023787   -2.989595    1.120528
C       1.433099   -1.803287    0.769770
C       0.798742   -0.546988    1.283309
H       0.934404    2.033017    0.049411
H      -0.536152    1.886040   -0.926783
H      -0.643743    1.888913    0.836840
H      -0.892119   -0.432210   -0.050918
H       0.328181   -0.745991   -2.060630
H       1.741581    0.144752   -1.461451
H       2.260018   -3.127587   -2.072359
H       2.177550   -3.402250    2.105816
H       1.552442    0.159939    1.657314
H       0.086489   -0.714424    2.095794
