13

O       0.130478   -0.000085    0.546539
C       0.086306    1.198995    0.402706
N       1.081527    1.918624   -0.192922
C       2.443049    1.456695   -0.496777
C       2.863371    2.932644   -0.513993
O       3.857035    3.541003   -0.720958
C       1.386821    3.355184   -0.122911
C       0.685469    4.214878   -1.067168
N       0.141205    4.896604   -1.825030
H      -0.763663    1.834391    0.716646
H       2.901921    0.854374    0.295712
H       2.550876    0.934509   -1.453169
H       1.335384    3.784828    0.885874
