15

C       0.291069    1.149676    0.238627
O      -0.288337   -0.038476   -0.292736
C       0.469251   -0.586579   -1.317781
C       1.461299   -1.637206   -0.914306
O       1.629192   -1.929838    0.424563
C       0.164108   -2.045312   -1.647037
C      -0.852708   -2.733703   -0.910297
N      -1.657751   -3.302023   -0.304216
H       1.291197    0.960695    0.647917
H       0.361111    1.930137   -0.531418
H      -0.372583    1.491107    1.034801
H       0.677381    0.079943   -2.155247
H       2.386322   -1.757518   -1.466958
H       0.836027   -1.633808    0.891955
H       0.250076   -2.335232   -2.688785
