21

C      -0.042119    1.472481    0.090261
C       0.035225   -0.033663   -0.038720
C       0.689505   -0.576086   -1.338338
C      -0.095555   -1.882089   -1.619403
C      -1.078388   -1.945979   -0.426089
C      -0.484017   -2.631788    0.811020
C       0.824976   -1.923268    1.188600
O       0.702318   -0.506700    1.124590
O      -1.280630   -0.567725   -0.087367
H       0.962077    1.903248    0.079911
H      -0.622110    1.889006   -0.736219
H      -0.525420    1.734035    1.034102
H       0.555212    0.149635   -2.143150
H       1.762662   -0.729508   -1.204452
H      -0.649436   -1.814558   -2.558464
H       0.547052   -2.765019   -1.677161
H      -2.050144   -2.369130   -0.690364
H      -1.207003   -2.546386    1.628366
H      -0.297005   -3.696268    0.629911
H       1.122471   -2.154894    2.214992
H       1.639839   -2.263683    0.530003
