18

C      -1.028229    1.269703   -0.195746
N      -0.239909    0.048990   -0.011230
C      -0.100680   -0.372921    1.359621
N       0.617479   -1.494879    1.554118
O      -0.620427    0.273776    2.251680
C       0.302118   -0.595774   -1.112852
N       1.008014   -1.661230   -1.032511
C       0.009830    0.052421   -2.475324
O       0.486855   -0.732883   -3.545636
H      -1.247538    1.650865    0.798717
H      -0.470253    2.026181   -0.754636
H      -1.974400    1.070467   -0.710303
H       1.036237   -1.972084    0.756684
H       0.730305   -1.785371    2.509284
H       1.320959   -1.918225   -1.966993
H      -1.062168    0.261195   -2.576034
H       0.530669    1.013588   -2.541937
H      -0.126412   -1.463347   -3.679111
