19

C       0.137444    1.484903    0.285881
C      -0.019537   -0.015822   -0.033037
C      -1.465787   -0.536058    0.146845
C      -1.927230   -0.518306    1.610470
N      -3.265070   -1.058955    1.771514
C      -4.334094   -0.288766    2.117954
O      -4.291139    0.899698    2.352432
C       0.437350   -0.293482   -1.399184
N       0.786580   -0.510888   -2.479341
H       1.166663    1.810793    0.118563
H      -0.519649    2.084568   -0.350066
H      -0.117585    1.683121    1.329364
H       0.637490   -0.585904    0.638209
H      -2.149391    0.068363   -0.459027
H      -1.522241   -1.560620   -0.238398
H      -1.222442   -1.085952    2.232471
H      -1.972562    0.500889    1.998589
H      -3.425656   -2.034738    1.577035
H      -5.267442   -0.882905    2.168408
