15

C      -0.021117    1.485367    0.033004
C      -0.002070   -0.004344   -0.039737
N      -0.046707   -0.702190   -1.143129
C      -0.005648   -2.025906   -0.717675
C      -0.008192   -3.316036   -1.162505
O       0.057559   -4.148628   -0.084419
C       0.103547   -3.404883    1.069323
C       0.066375   -2.094824    0.712706
N       0.067611   -0.774397    1.120450
H       0.880797    1.872490    0.520751
H      -0.074201    1.887569   -0.978477
H      -0.885356    1.845837    0.602586
H      -0.048687   -3.793421   -2.125688
H       0.157164   -3.961633    1.987331
H       0.106797   -0.417798    2.058530
