21

C      -0.237487    0.973795    1.267924
C      -0.133572   -0.045274    0.139536
C       0.884521   -1.146193    0.446363
O      -1.448303   -0.576500   -0.038908
C      -1.678819   -1.223632   -1.261047
C      -3.145616   -1.675230   -1.279982
N      -3.463290   -2.253486   -2.586242
C      -3.427073   -2.588100   -0.150183
N      -3.673994   -3.354511    0.679466
H       0.729586    1.453610    1.444044
H      -0.971688    1.744939    1.020945
H      -0.554520    0.481999    2.192805
H       0.162444    0.471890   -0.788700
H       0.968494   -1.867351   -0.371704
H       1.876553   -0.711475    0.603954
H       0.593532   -1.686711    1.352391
H      -1.523249   -0.550915   -2.117808
H      -1.027683   -2.101158   -1.399234
H      -3.762245   -0.780683   -1.141411
H      -2.990224   -3.147057   -2.691739
H      -4.457357   -2.451308   -2.644199
