20

C       0.156677    1.481261    0.170154
C      -0.052143   -0.027705    0.003972
C       0.659088   -0.584204   -1.221680
C       2.214732   -0.586476   -1.269671
C       2.144426   -1.962682   -2.000362
C       3.076309   -3.013160   -1.641107
N       3.771423   -3.881273   -1.321732
C       0.678608   -2.121785   -1.447064
O       0.631320   -2.782964   -0.208620
H       1.218611    1.727760    0.278193
H      -0.224990    2.035628   -0.694757
H      -0.360500    1.854410    1.059070
H       0.302979   -0.559043    0.892294
H      -1.124794   -0.245468   -0.074955
H       0.269960   -0.107839   -2.129803
H       2.721517    0.219373   -1.802103
H       2.648010   -0.692151   -0.273145
H       2.134302   -1.834673   -3.086378
H      -0.048713   -2.537106   -2.156767
H       0.952602   -3.684907   -0.324512
