13

O       0.109105    0.025334   -0.534577
C       0.013737    1.141318   -0.142743
C      -1.142886    2.028422    0.327745
C      -0.103776    3.123197    0.757303
C      -0.021193    3.348119    2.189835
N       0.020951    3.527441    3.330455
C       1.069797    2.271616    0.118341
C       2.239718    1.945716    0.904063
N       3.166967    1.664860    1.533921
H      -1.809896    2.338436   -0.480792
H      -1.740453    1.599096    1.134420
H      -0.235731    4.081145    0.252472
H       1.376543    2.706683   -0.839119
