17

C      -0.091993    1.584244    0.033573
C      -0.041762    0.070659   -0.043683
C       1.202335   -0.608130   -0.689517
O       2.014547   -0.215170    0.484469
C       0.740534   -0.712306    1.052032
C       0.893648   -1.912131    0.085743
O      -0.254926   -2.658388   -0.263562
C      -0.153303   -4.004579   -0.316302
O      -1.073373   -4.706871   -0.602293
H       0.880985    1.991592    0.315578
H      -0.382884    2.010422   -0.932232
H      -0.833792    1.908527    0.770869
H      -0.998863   -0.374949   -0.324136
H       1.644927   -0.476851   -1.677124
H       0.633569   -0.705046    2.136925
H       1.763318   -2.544376    0.278536
H       0.862588   -4.366563   -0.068258
