16

O       0.334943    1.228990    0.201252
C       0.103752   -0.134674   -0.057298
C      -1.399184   -0.444582   -0.027962
N      -2.015611    0.107752    1.192193
C      -3.408912    0.500795    0.939620
C      -3.436285    0.866455   -0.535494
O      -4.274384    1.481095   -1.132984
C      -2.157670    0.241623   -1.158564
O      -1.863647    0.274967   -2.320284
H      -0.243993    1.445621    0.946271
H       0.490231   -0.359960   -1.056135
H       0.623297   -0.785237    0.666255
H      -1.552988   -1.531977   -0.147900
H      -1.931162   -0.520207    1.980918
H      -4.140134   -0.311728    1.094425
H      -3.716731    1.345186    1.563326
