19

C       0.356543    1.092625    0.358165
O      -0.340562    0.082139   -0.347437
C       0.398040   -0.493580   -1.372880
C       1.435421   -1.545136   -1.055799
C       0.101513   -1.929775   -1.669381
C      -0.963990   -2.700902   -0.892589
N      -1.016928   -4.079651   -1.398812
C      -0.762948   -2.658558    0.572323
N      -0.610078   -2.728117    1.716564
H       1.267585    0.700167    0.829084
H       0.634188    1.925030   -0.305349
H      -0.317692    1.462516    1.133019
H       0.590680    0.171232   -2.216925
H       2.326892   -1.606830   -1.669799
H       1.579992   -1.784325   -0.007519
H       0.095032   -2.223776   -2.713566
H      -1.938687   -2.240946   -1.095246
H      -0.137609   -4.546701   -1.191506
H      -1.738685   -4.598939   -0.906881
