19

C      -0.006851    1.508780   -0.123297
C       0.073573    0.011520    0.041763
N       1.396738   -0.615033    0.011252
C       0.616984   -0.667815    1.272387
C       1.195080    0.074596    2.463827
C       2.349806   -0.679614    3.117942
O       2.817918    0.127011    4.186436
C      -0.006206   -1.936703    1.592901
N      -0.488895   -2.957217    1.848275
H       0.849385    2.012293    0.328089
H      -0.017160    1.760529   -1.188834
H      -0.925712    1.900173    0.324622
H      -0.733507   -0.534710   -0.444054
H       1.371358   -1.511729   -0.467497
H       1.562551    1.049316    2.137554
H       0.410483    0.248219    3.208236
H       2.002270   -1.660659    3.476875
H       3.135376   -0.856625    2.367739
H       3.539266   -0.337321    4.620586
