20

C      -0.127721    1.529608   -0.336097
C      -0.074086    0.080081    0.150847
N      -1.370162   -0.573687    0.119342
C      -1.889553   -1.341609   -0.880644
C      -3.188358   -1.654899   -0.511146
N      -4.094906   -2.477909   -1.188511
C      -5.487389   -2.412177   -0.777788
C      -3.352651   -1.011195    0.738137
N      -2.246234   -0.360494    1.108072
H       0.864390    1.987544   -0.273166
H      -0.466343    1.582134   -1.375188
H      -0.818807    2.108371    0.281770
H       0.610340   -0.513394   -0.463064
H       0.280049    0.037600    1.184065
H      -1.309409   -1.610923   -1.748906
H      -3.989788   -2.422314   -2.191615
H      -6.081807   -3.058034   -1.428724
H      -5.590089   -2.790015    0.245072
H      -5.914865   -1.396170   -0.805688
H      -4.217655   -1.005916    1.383370
