11

C      -0.025367    1.514143    0.022339
C      -0.012232    0.004746   -0.064564
C       0.762143   -0.712260   -1.098887
O       1.223340   -0.645264    0.247825
C      -1.190812   -0.658751    0.474525
N      -2.143285   -1.156034    0.899848
H       0.894396    1.913662   -0.410426
H      -0.883822    1.923566   -0.517830
H      -0.090924    1.835532    1.065444
H       0.433690   -1.693112   -1.435244
H       1.325085   -0.122534   -1.820508
