23

C      -0.262277    1.155006   -1.286608
C       0.305709   -0.160557   -0.788948
O       1.701433   -0.329845   -1.138690
C       2.098155   -0.568199    0.247258
C       2.595955   -1.999490    0.416783
C       3.136173    0.455563    0.687854
C       0.647061   -0.314474    0.692719
C       0.146810    0.497987    1.847412
C      -0.146251   -0.984334    1.769233
H       0.294863    2.002822   -0.877943
H      -0.205156    1.197382   -2.378961
H      -1.315260    1.256149   -0.999833
H      -0.290821   -0.996849   -1.184371
H       3.501429   -2.153935   -0.178939
H       2.837956   -2.212708    1.463912
H       1.839360   -2.715426    0.085191
H       2.760209    1.472602    0.552513
H       3.401422    0.319340    1.742132
H       4.048344    0.342959    0.092740
H       0.864766    0.837541    2.587200
H      -0.667639    1.193450    1.670620
H      -1.160279   -1.296086    1.537058
H       0.372604   -1.644210    2.457473
