21

C      -0.012537    1.425308   -0.254403
C       0.145560   -0.069763   -0.084610
C       1.516649   -0.695634    0.009462
C       0.622994   -0.643106    1.219693
C       0.925542    0.052419    2.560014
C       0.662470   -1.305908    3.289377
C       0.132065   -1.867063    1.964381
C      -1.028677   -2.723132    1.712600
O       0.313978   -3.200374    1.521912
H       0.760624    1.968943    0.298025
H       0.068180    1.713926   -1.308113
H      -0.986119    1.770069    0.112042
H      -0.602308   -0.663688   -0.606771
H       1.675481   -1.668692   -0.443561
H       2.379757   -0.036085   -0.008573
H       1.930521    0.464406    2.674871
H       0.197804    0.825466    2.822715
H       1.582419   -1.808149    3.599020
H      -0.033449   -1.287554    4.131087
H      -1.567011   -3.167592    2.549512
H      -1.612463   -2.599045    0.801119
