17

C      -0.060640    1.536427    0.001804
C      -0.025196    0.037483    0.019930
C       0.443179   -0.795466   -1.191899
C      -0.551189   -1.822693   -0.682231
C      -0.543411   -1.811188    0.813341
C       0.439900   -0.755399    1.271790
O       1.796224   -1.042788    1.496061
N      -1.360018   -0.795469    0.054124
H       0.959802    1.936256    0.018827
H      -0.561347    1.912558   -0.895852
H      -0.592605    1.924149    0.876477
H       0.098625   -0.349662   -2.128914
H       1.506394   -1.048244   -1.282804
H      -1.036119   -2.616932   -1.238469
H      -1.022490   -2.586717    1.400256
H       0.077412   -0.258530    2.176403
H       2.098492   -1.632868    0.798340
