20

N      -0.060752   -1.087152   -0.105488
C      -0.001504    0.059398    0.014980
C       0.033043    1.516326    0.178914
O       1.323649    1.985577   -0.107022
C       1.433592    3.394187    0.039360
C       2.865388    3.799508   -0.285765
C       3.078617    5.293012   -0.166644
C       3.385790    5.917985    1.173801
C       4.451977    5.847673    0.108764
H      -0.721647    1.961349   -0.491196
H      -0.270597    1.759206    1.211045
H       0.724023    3.899587   -0.637509
H       1.171457    3.690953    1.067963
H       3.541836    3.268339    0.394081
H       3.104332    3.456026   -1.299378
H       2.457281    5.888845   -0.831512
H       2.952960    6.883941    1.408892
H       3.484167    5.256744    2.028982
H       5.263266    5.141148    0.250284
H       4.745629    6.765375   -0.388335
