17

C      -0.073990    1.498524    0.090206
C       1.312890    2.122856   -0.047761
C       2.387827    1.355498   -0.260049
C       2.025391   -0.077903   -0.339570
N       2.703157   -1.406849   -0.465833
C       1.220180   -1.740919   -0.362890
C       0.995886   -0.633691    0.687938
N      -0.163722    0.015023   -0.022485
C       0.736331   -0.479663   -1.126998
H      -0.503606    1.782844    1.060397
H      -0.744719    1.928593   -0.665860
H       1.382182    3.203585    0.040044
H       3.400388    1.730535   -0.357451
H       3.021605   -1.551194   -1.428834
H       0.840764   -2.761851   -0.384730
H       1.100608   -0.679729    1.771844
H       0.521178   -0.342354   -2.189136
