18

C      -0.084349    1.473740    0.397198
C      -0.044312    0.014120   -0.018889
O      -1.367582   -0.491616   -0.002566
C      -1.427847   -1.851624   -0.374910
C      -2.806861   -2.321920   -0.326058
C      -3.935942   -2.730647   -0.288648
C      -5.314332   -3.210488   -0.245909
C      -5.538098   -4.241464    0.776963
N      -5.727137   -5.054490    1.574495
H       0.924540    1.896724    0.395526
H      -0.705518    2.052151   -0.292266
H      -0.502478    1.574081    1.402543
H       0.389258   -0.091856   -1.027988
H       0.592116   -0.569626    0.667635
H      -1.023248   -1.995797   -1.392143
H      -0.807867   -2.469269    0.298208
H      -5.998854   -2.375811   -0.046985
H      -5.611147   -3.623348   -1.218648
