23

C      -0.085596    1.517603   -0.050354
C       0.030710   -0.009351   -0.014020
C       0.691355   -0.548547    1.257771
C      -0.080000   -0.264326    2.577555
C       0.211294   -1.479363    3.423583
C       0.748211   -2.470528    2.712078
C       1.126172   -3.830761    3.198383
O       0.819515   -3.958462    4.575333
C       0.905731   -2.086177    1.256873
H       0.900288    1.990492    0.024305
H      -0.548056    1.858876   -0.981854
H      -0.694771    1.892615    0.778656
H      -0.967811   -0.457052   -0.114284
H       0.604025   -0.349306   -0.886633
H       1.680884   -0.082063    1.353451
H       0.232309    0.673241    3.051773
H      -1.161983   -0.166726    2.395763
H      -0.028612   -1.544963    4.477398
H       0.594773   -4.590582    2.596156
H       2.202860   -3.995759    3.010374
H       1.097192   -4.832518    4.862748
H       0.148824   -2.595472    0.639737
H       1.879409   -2.369672    0.837179
