19

O       0.129449    1.329585   -0.368761
C      -0.007594    0.082512    0.300189
C      -1.358223   -0.473458    0.235233
C      -2.469673   -0.931764    0.120702
C      -3.824798   -1.408675    0.048968
C      -4.782306   -0.679108    0.985615
O      -4.871494    0.703614    0.709493
C      -4.356189   -1.879696   -1.295669
C      -4.073486   -2.885407   -0.218988
H      -0.215004    1.215986   -1.260819
H       0.707354   -0.661421   -0.086902
H       0.273706    0.274280    1.341723
H      -5.792092   -1.083726    0.859895
H      -4.475620   -0.862281    2.027340
H      -3.978033    1.062273    0.769193
H      -5.388230   -1.635295   -1.521714
H      -3.683401   -1.834773   -2.143547
H      -3.206588   -3.526328   -0.324990
H      -4.911690   -3.341269    0.297661
