20

C      -0.310626    1.511799   -0.033235
N       0.083416    0.121459    0.010879
C       1.047856   -0.452281   -0.946652
C       2.399209    0.304165   -1.031842
C       3.046625   -0.145160    0.298420
C       2.156820    0.315064    1.476162
C       0.846161   -0.443212    1.140282
C       1.409284   -1.519964    0.146152
O       2.808578   -1.563293    0.281577
H       0.514185    2.241704    0.043237
H      -0.837604    1.706758   -0.973761
H      -1.007672    1.714426    0.787357
H       0.627952   -0.743327   -1.912779
H       2.993829   -0.058524   -1.875415
H       2.286148    1.386968   -1.126693
H       4.115378    0.042982    0.400893
H       2.578590   -0.039845    2.421086
H       2.028583    1.398550    1.538273
H       0.248772   -0.726277    2.010586
H       0.969443   -2.512075    0.107954
