19

C       0.105886    1.498898    0.009192
C      -0.071706    0.023107    0.027097
C      -1.142549   -0.810840   -0.005597
C      -2.644325   -0.805423   -0.063130
C      -2.958027   -2.273284   -0.489622
C      -1.763850   -3.146520    0.006494
C      -0.639027   -2.151408    0.033801
C       0.709789   -2.054464    0.087924
O       1.073199   -0.732973    0.082887
H       0.732541    1.819574   -0.830947
H      -0.866924    1.987374   -0.083996
H       0.581846    1.862262    0.927729
H      -3.077484   -0.587175    0.922179
H      -3.066942   -0.076967   -0.762056
H      -3.921933   -2.624779   -0.111992
H      -2.999890   -2.321558   -1.582895
H      -1.963023   -3.540746    1.011676
H      -1.586919   -4.009290   -0.642412
H       1.525946   -2.756908    0.123090
