16

C      -0.106013    1.584518    0.018494
C       0.017185    0.052645   -0.034150
C       0.838543   -0.505820   -1.170041
C       1.842338   -1.240885   -0.691469
N       1.822631   -1.267669    0.722459
C       2.736281   -1.935098    1.524754
O       3.655500   -2.582727    1.086623
C       0.741948   -0.493086    1.204845
O       0.484851   -0.310768    2.366841
H       0.879928    2.057039   -0.014037
H      -0.689529    1.951946   -0.829884
H      -0.603887    1.884446    0.944114
H      -0.994429   -0.376896   -0.029900
H       0.634022   -0.329394   -2.215826
H       2.623732   -1.790664   -1.192720
H       2.510517   -1.795772    2.592814
