18

C      -0.480011    1.438238   -0.278395
C      -0.020463   -0.024748   -0.220763
C       0.865695   -0.449438   -1.376836
C       0.840886   -1.896651   -1.846739
N       0.306900   -0.854730   -2.671375
C      -1.023497   -0.775484   -3.063433
O      -1.707767   -1.726412   -3.345652
C       2.200538    0.226179   -1.511728
O       2.693956    0.924660   -0.664390
H       0.375943    2.116390   -0.274815
H      -1.076385    1.640679   -1.173899
H      -1.100868    1.672266    0.590974
H       0.549646   -0.186943    0.700468
H      -0.888123   -0.692904   -0.181586
H       1.753149   -2.371334   -2.199062
H       0.134558   -2.555045   -1.347311
H      -1.361495    0.271537   -3.163878
H       2.712752    0.006321   -2.474433
