15

N      -0.022507    1.305329    0.168325
C       1.054681    2.210467    0.075893
C       1.757229    2.501212   -1.034827
N       1.577529    2.048689   -2.317270
C       1.845162    0.855084   -2.711014
N       2.503442   -0.115415   -2.015524
C       2.068939   -0.719353   -0.967110
N       0.796200   -0.848145   -0.515029
C      -0.099222   -0.012017   -0.152189
H      -0.859023    1.669011    0.600455
H       1.229593    2.789337    0.976273
H       2.505881    3.286336   -0.932755
H       1.662685    0.631759   -3.764350
H       2.776640   -1.380161   -0.461822
H      -1.106127   -0.404648    0.003501
