15

O       0.138037    1.272073    0.464384
C       0.003532   -0.029672   -0.089442
C      -1.433924   -0.434010    0.012354
N      -1.769964   -1.707485    0.224278
N      -3.109529   -1.710964    0.219158
C      -3.651245   -0.471553    0.023724
C      -2.571076    0.387282   -0.118257
C      -5.043852   -0.253166   -0.002309
C      -6.235998   -0.083980   -0.022652
H       1.028691    1.581986    0.276515
H       0.316093   -0.036792   -1.146517
H       0.618252   -0.773506    0.437234
H      -3.608638   -2.570979    0.374127
H      -2.605011    1.451049   -0.277744
H      -7.285759    0.075215   -0.041279
