10

O      -0.007727    1.366645    0.009482
N       1.331935    1.802555   -0.001030
C       2.107608    0.737327   -0.014219
C       1.306215   -0.429016   -0.012788
C       0.023985    0.027649    0.001990
C      -0.777408   -1.138695    0.003427
N      -0.001735   -2.203923   -0.009739
O       1.337927   -1.768012   -0.020297
H       3.178293    0.871783   -0.023788
H      -1.848093   -1.273151    0.012994
