16

C      -0.142838    1.318960    0.514798
N      -0.051713   -0.104162    0.294284
C      -1.114733   -1.032382   -0.099280
C      -1.878320   -0.607826   -1.272625
N      -2.449999   -0.243023   -2.208879
C       0.054320   -2.067559   -0.444541
O       0.060753   -2.721730   -1.661325
C       0.986528   -0.869974   -0.227506
N       2.207362   -0.708322   -0.505529
H       0.854610    1.699524    0.750094
H      -0.523334    1.851333   -0.367110
H      -0.797628    1.533674    1.365114
H      -1.796703   -1.317563    0.708176
H       0.127151   -2.821652    0.342505
H       0.338719   -2.105681   -2.349231
H       2.533709    0.240054   -0.313679
