21

C       0.010274    1.443262   -0.369326
C      -0.067319   -0.048650   -0.081353
C      -0.338232   -0.550297    1.315819
C      -1.392525   -0.686523    0.244400
C       1.382465    2.021476   -0.187564
C       2.145005    2.643721   -1.083368
C       3.439017    3.077972   -0.459488
O       3.363630    2.643722    0.896296
C       2.123051    1.985365    1.128280
H      -0.330518    1.641404   -1.392560
H      -0.695964    1.959635    0.298012
H       0.616752   -0.648071   -0.676366
H       0.172845   -1.444408    1.655018
H      -0.504706    0.186774    2.095000
H      -2.262769   -0.040786    0.306260
H      -1.601969   -1.674096   -0.151194
H       1.892977    2.834277   -2.119655
H       4.318574    2.626824   -0.947188
H       3.579139    4.170787   -0.495589
H       1.565461    2.501982    1.927786
H       2.304801    0.957865    1.478629
