18

O      -0.194608    1.360724    0.001207
C       0.027778   -0.034941   -0.095859
C       0.825296   -0.369653   -1.295680
N       1.486855   -0.614299   -2.211326
C       0.690858   -0.615378    1.158941
C      -0.086992   -0.504120    2.512831
C       0.046623   -2.023535    2.686167
C      -0.618245   -2.728005    1.542641
C       0.751329   -2.139000    1.328661
H       0.660390    1.795565    0.100212
H      -0.966893   -0.473629   -0.223916
H       1.689629   -0.175927    1.252929
H       0.459530    0.078834    3.255842
H      -1.109484   -0.118095    2.451596
H       0.285870   -2.528226    3.613462
H      -0.634014   -3.811182    1.603746
H      -1.503424   -2.304214    1.073497
H       1.593443   -2.756559    1.043347
