18

O      -0.186288    1.303919    0.034248
N      -0.012019   -0.097490    0.018603
C      -1.131987   -0.691222    0.003587
C      -2.556162   -0.156558    0.001334
C      -3.272621   -1.530586   -0.028796
O      -4.661635   -1.554482    0.033123
C      -2.479400   -2.337797    1.028006
C      -1.323722   -2.183874   -0.020202
C      -2.444930   -2.308002   -1.106259
H       0.723727    1.618444    0.048005
H      -2.787770    0.428233    0.896782
H      -2.763013    0.465441   -0.876998
H      -5.009359   -0.934345   -0.616714
H      -2.342014   -1.899811    2.019928
H      -2.830559   -3.368708    1.102948
H      -0.437581   -2.812273   -0.014691
H      -2.794308   -3.335695   -1.222662
H      -2.272287   -1.840488   -2.079845
