16

C       0.025866   -3.828481   -0.111576
C       0.029796   -2.621530   -0.061690
C       0.031438   -1.262520   -0.008260
C       0.037171   -0.052599    0.043757
C       0.029193    1.392139    0.090663
C      -0.220059    2.124261    1.476239
C       1.111228    2.853860    1.278709
N       2.144984    1.794045    1.214849
C       1.378146    2.141657    0.001555
H       0.024711   -4.889139   -0.151844
H      -0.667047    1.786360   -0.656622
H      -1.097840    2.771211    1.437149
H      -0.266078    1.475320    2.351941
H       1.363958    3.863323    1.576863
H       3.051285    2.254210    1.134284
H       1.874312    2.463718   -0.905339
