21

C       0.084734    1.453009   -0.186401
C       0.482947   -0.011321   -0.130345
O       0.164469   -0.609311   -1.377701
C       0.473678   -1.957483   -1.443244
C       0.807610   -2.536726   -2.778105
C       1.205308   -1.557888   -3.886851
C       2.491381   -0.938648   -3.384084
C       2.872197   -1.452489   -2.212411
C       1.897482   -2.453079   -1.698618
H       0.626447    1.964665   -0.986954
H      -0.987222    1.553936   -0.379091
H       0.315543    1.947646    0.761853
H       1.559865   -0.118294    0.068932
H      -0.053040   -0.529897    0.681636
H      -0.118285   -2.582734   -0.770910
H       0.355008   -3.482221   -3.053194
H       1.348909   -2.075307   -4.843990
H       0.430773   -0.798141   -4.049088
H       3.004390   -0.148680   -3.920945
H       3.759767   -1.166968   -1.659174
H       2.240029   -3.321239   -1.145086
