21

C      -0.157371    1.517549    0.064502
C      -0.319128    0.007263   -0.099467
O       0.920758   -0.672038    0.094896
C      -1.415466   -0.563390    0.815164
C      -1.610736   -2.049378    0.618860
O      -2.742653   -2.661645    1.248674
C      -2.672244   -2.676199   -0.189039
C      -3.792179   -1.948318   -0.889493
O      -5.014870   -2.652320   -0.743981
H       0.647991    1.881946   -0.578618
H      -1.078979    2.047822   -0.195659
H       0.090327    1.771469    1.103079
H      -0.581749   -0.212253   -1.141995
H       1.248267   -0.436759    0.970629
H      -1.129007   -0.387649    1.862597
H      -2.352930   -0.022465    0.658157
H      -0.689366   -2.622217    0.723303
H      -2.469580   -3.666646   -0.601011
H      -3.880079   -0.919149   -0.515683
H      -3.591190   -1.899670   -1.965500
H      -5.149707   -2.772545    0.203123
