19

C      -0.205216    1.607403   -0.023218
C       0.021235    0.104469    0.001963
O      -1.210179   -0.597397   -0.148223
C       1.143030   -0.490680   -0.928444
C       1.762332   -1.234034    0.290902
C       2.884785   -0.493585    1.062335
O       2.647751    0.912544    0.944602
C       1.897629    0.181529    1.927163
C       0.722782   -0.548305    1.232537
H       0.730023    2.150018    0.121858
H      -0.627473    1.910032   -0.990554
H      -0.915602    1.896196    0.758110
H      -1.600236   -0.322659   -0.985755
H       0.732971   -1.156224   -1.691324
H       1.800017    0.247756   -1.390939
H       1.854590   -2.318201    0.250717
H       3.908248   -0.801045    1.247351
H       1.964210    0.541535    2.947830
H       0.078324   -1.127703    1.892403
