21

C       0.574167    1.350097    0.038251
C      -0.081546   -0.032152   -0.046521
O      -1.502855    0.137379   -0.104008
C       0.436388   -0.870400   -1.265142
C       1.349974   -1.946999   -0.710301
C       2.507183   -1.524390    0.181034
C       1.218502   -1.961389    0.801007
O       1.287639   -3.129626    1.561357
C       0.198095   -0.908634    1.202115
H       1.660764    1.286908    0.140572
H       0.367368    1.928939   -0.870832
H       0.177773    1.901908    0.895673
H      -1.696972    0.748992   -0.822596
H      -0.433956   -1.333743   -1.741443
H       0.922217   -0.233912   -2.015139
H       1.466536   -2.874695   -1.259544
H       3.317342   -2.240056    0.266057
H       2.820852   -0.486926    0.224993
H       0.423926   -3.556796    1.526633
H       0.509435   -0.314021    2.067081
H      -0.739376   -1.409017    1.471370
