20

O       0.293986    1.257523   -0.481818
C       0.068468   -0.019093    0.078894
C      -1.398358   -0.488610    0.029038
C      -2.256909    0.161847    1.132289
C      -2.233245    1.624751    1.127346
N      -2.180497    2.780379    1.119396
C      -1.962465   -0.458665   -1.422801
C      -1.653434   -1.975818   -1.546950
C      -1.490960   -2.045864   -0.003618
H      -0.135578    1.926423    0.063156
H       0.678176   -0.708216   -0.515093
H       0.436403   -0.083233    1.117103
H      -3.298723   -0.163516    1.035758
H      -1.909765   -0.176106    2.117313
H      -3.036185   -0.250797   -1.447203
H      -1.458047    0.225323   -2.106612
H      -2.429897   -2.605221   -1.985652
H      -0.717753   -2.170813   -2.076101
H      -0.632925   -2.594208    0.396496
H      -2.394076   -2.415487    0.491441
