15

C       0.089163    1.497917    0.015460
C      -0.040003    0.015033   -0.010029
C      -1.182303   -0.689158   -0.120475
F      -2.364588   -0.062441   -0.222208
C      -1.165476   -2.119468   -0.132124
C       0.013764   -2.766159   -0.030588
C       1.259663   -2.033846    0.089804
N       2.398152   -2.589471    0.188846
O       1.150274   -0.640244    0.092220
H       0.721150    1.842746   -0.810270
H      -0.893272    1.963083   -0.069353
H       0.561558    1.826505    0.947692
H      -2.107710   -2.648336   -0.222863
H       0.093551   -3.844840   -0.033208
H       3.137525   -1.890595    0.262699
