20

C      -0.021114    1.708411    0.585618
N       0.044847    0.280079    0.297543
C       1.306156   -0.267806   -0.177805
C       0.781487   -0.628923    1.171981
C       1.539957   -0.206702    2.416550
N       0.686508    0.011847    3.575962
C       0.514739    1.271143    4.103829
N      -0.466641    1.339936    5.087870
O       1.141769    2.250452    3.738943
H       0.872964    2.130258    1.063247
H      -0.194637    2.236999   -0.357180
H      -0.873256    1.902589    1.244020
H       1.249473   -0.966550   -1.008984
H       2.173752    0.392854   -0.199973
H       0.286099   -1.596077    1.279047
H       2.275764   -0.989620    2.645303
H       2.090413    0.722801    2.268401
H      -0.025260   -0.677357    3.761751
H      -0.609683    0.522746    5.662772
H      -0.416668    2.200262    5.612543
