15

C      -0.026446    1.467263    0.010769
C       0.010402    0.014531    0.002592
C       0.054649   -1.190806   -0.004242
C       0.067654   -2.615763   -0.011982
N       1.251138   -3.255198   -0.022336
C       1.203242   -4.585320   -0.029229
C       0.002262   -5.291130   -0.026022
N      -1.178385   -4.666585   -0.015771
C      -1.140003   -3.338311   -0.008837
H       0.984848    1.887131    0.003539
H      -0.557115    1.853779   -0.866430
H      -0.540462    1.844216    0.901942
H       2.155901   -5.109468   -0.037615
H      -0.010062   -6.377611   -0.031803
H      -2.088992   -2.809476   -0.000453
