17

N      -1.216675    1.007222   -0.125097
C      -0.469784   -0.116156   -0.102359
O       0.675117   -0.191819   -0.523775
C      -1.136072   -1.387740    0.465642
O      -0.191465   -2.417324    0.475448
C      -1.670214   -1.202086    1.895434
O      -2.767711   -0.286193    1.922504
C      -4.019084   -0.799358    1.887722
N      -4.994726   -0.038395    1.650675
H      -0.782981    1.859829   -0.441262
H      -2.091447    1.051116    0.376077
H      -1.990416   -1.639323   -0.186161
H       0.594905   -2.022003    0.054338
H      -1.969030   -2.180720    2.287664
H      -0.894450   -0.791178    2.546128
H      -4.051519   -1.876434    2.099403
H      -5.867947   -0.558992    1.696142
