16

C       0.203609    1.475559    0.047116
O       0.345758    0.074616    0.088998
C       0.492781   -0.498597   -1.187315
C       0.490621   -1.995472   -1.025760
C       1.366451   -2.855010   -1.854263
O       1.677528   -2.602377   -0.496983
C      -0.777468   -2.633688   -0.534790
O      -1.863752   -2.123135   -0.608666
H       1.085645    1.961851   -0.398837
H      -0.685537    1.776933   -0.527895
H       0.093618    1.820544    1.077470
H      -0.343197   -0.213756   -1.846261
H       1.432661   -0.174775   -1.662510
H       1.058834   -3.873314   -2.090009
H       2.010212   -2.377791   -2.591856
H      -0.615399   -3.648402   -0.107337
