17

O      -0.761825    1.129260   -1.391140
C      -0.282269    0.234920   -0.406875
C      -1.365489   -0.345261    0.494661
O      -2.158837   -1.337185   -0.173652
C      -3.256580   -0.926673   -0.833676
C      -3.783317    0.298780   -1.206357
C      -4.979039   -0.046318   -1.882719
N      -5.182313   -1.354457   -1.935969
N      -4.112724   -1.875607   -1.280389
H      -1.336008    0.642026   -1.992555
H       0.287778   -0.595118   -0.851673
H       0.408047    0.811141    0.220155
H      -0.897122   -0.873571    1.331082
H      -2.012500    0.445462    0.890637
H      -3.367047    1.274301   -1.026758
H      -5.695603    0.623353   -2.336240
H      -4.018281   -2.870766   -1.170308
