15

O      -0.018090    0.034528   -0.283409
C      -0.041435    1.195778   -0.023180
C      -1.154123    2.198627    0.335274
C      -0.055040    3.227650    0.636335
C      -0.088830    4.685356    0.697605
O       0.027594    3.878264    1.881766
C       1.074819    2.290147    0.117016
C       2.215925    2.025054    0.957028
C       3.153871    1.793069    1.671321
H      -1.819086    2.434824   -0.501213
H      -1.757942    1.909765    1.200159
H       0.800979    5.256975    0.437969
H      -1.035260    5.211929    0.583550
H       1.388885    2.588348   -0.893084
H       3.981394    1.588459    2.304557
