18

O      -0.137469    1.330047   -0.030894
C       0.016955   -0.066269   -0.045735
C      -1.270900   -0.737461   -0.531302
O      -1.869381   -1.316666    0.627367
C      -0.831128   -1.779434    1.494493
C       0.316090   -0.777062    1.323540
C       1.679575   -1.220820    0.748639
N       1.386756   -2.035594   -0.451785
C       1.397756   -0.557852   -0.555873
H       0.652508    1.719060    0.361597
H      -1.972412   -0.006547   -0.939912
H      -1.049468   -1.505300   -1.283091
H      -1.246954   -1.804765    2.505390
H      -0.508614   -2.790553    1.212883
H       0.407112   -0.059443    2.141473
H       2.613745   -1.339279    1.283534
H       2.274400   -2.374565   -0.820416
H       2.052402   -0.044965   -1.251241
