15

C       0.110242    1.286522    0.217340
O      -0.216004   -0.052808   -0.139182
C       0.515793   -0.564942   -1.194462
C       1.932505   -1.080497   -0.922021
C       0.810378   -2.049274   -1.116778
C       0.267065   -0.007439   -2.549577
O      -0.485233    0.900854   -2.799065
H       1.176701    1.382851    0.465668
H      -0.141228    1.985262   -0.585544
H      -0.482729    1.520866    1.103843
H       2.682214   -0.977954   -1.699024
H       2.289809   -0.916094    0.087648
H       0.401335   -2.537138   -0.240355
H       0.767475   -2.629253   -2.032098
H       0.857923   -0.512497   -3.350607
