19

C      -0.172163    1.505886    0.118885
C       0.106877    0.024060    0.026428
O      -0.990184   -0.752394   -0.384770
C       1.418801   -0.482924   -0.508949
O       2.445376    0.415428   -0.809289
C       1.100012   -0.664475    0.960450
C       1.867942    0.065827    2.010644
C       1.558871   -0.092493    3.438973
O       2.688730   -0.746028    2.862358
H       0.746845    2.079533    0.256031
H      -0.660192    1.845400   -0.800785
H      -0.841998    1.731859    0.956837
H      -1.626906   -0.775858    0.338712
H       1.369937   -1.373338   -1.134335
H       2.249750    0.820421   -1.660984
H       0.824154   -1.675005    1.246968
H       2.350670    0.986332    1.690630
H       1.785128    0.712039    4.138209
H       0.743350   -0.749370    3.741724
