17

C      -0.082692    1.596412    0.128993
C       1.452149    1.368905   -0.020949
C       1.707195    0.483684    1.220167
C       0.696009   -0.400635    1.226008
C      -0.059357    0.020601   -0.024052
O      -1.068884   -0.654738   -0.700958
C      -0.838200   -0.341830   -2.085387
O       0.378105    0.403885   -2.216542
C       1.095274    0.193682   -1.015417
H      -0.432177    1.999326    1.080150
H      -0.540069    2.105813   -0.720306
H       2.158080    2.164878   -0.247250
H       2.530655    0.584612    1.912594
H       0.466933   -1.209624    1.903035
H      -0.778420   -1.289372   -2.637660
H      -1.653392    0.277312   -2.478102
H       1.838647   -0.604695   -1.114995
