18

O       0.463127    0.792675    0.643651
C       0.160064   -0.452444    0.063401
C      -1.329288   -0.829676   -0.115588
C      -2.299083   -1.245832    0.910827
N      -2.411596    0.079463    0.258293
C      -1.089737   -1.291220   -1.559954
C       0.299006   -0.639913   -1.457180
C       0.988743    0.243783   -2.401087
O       1.467445   -1.078131   -2.115699
H       0.116424    1.480581    0.063825
H       0.730048   -1.200696    0.623318
H      -3.092860   -1.944148    0.659041
H      -1.964192   -1.289212    1.944633
H      -2.029472    0.785614    0.888390
H      -1.031534   -2.378180   -1.668442
H      -1.772325   -0.884717   -2.309167
H       0.577708    0.388967   -3.399212
H       1.617540    1.051529   -2.027973
