15

C      -0.136075   -1.299556   -0.049329
C      -0.067986   -0.099134   -0.019837
C       0.003375    1.342573    0.009795
C       0.141557    2.130202    1.351092
C       1.587404    1.619461    1.524654
C       1.393604    2.094265    0.056159
O       0.659719    3.278616    0.580434
C       2.350277    2.256592   -0.992563
C       3.156684    2.363336   -1.877415
H      -0.194688   -2.359650   -0.077480
H      -0.687894    1.822505   -0.685526
H      -0.625754    2.327795    2.097021
H       2.234125    2.262738    2.120557
H       1.746468    0.554110    1.694193
H       3.867978    2.463186   -2.660147
