14

O      -0.024879    1.311063   -0.094767
C      -0.009758   -0.071414   -0.004631
C      -0.494823   -0.704709    1.293654
C      -1.371353   -0.705195    0.052265
C      -1.422766   -2.132367   -0.421816
O      -2.070232   -2.601639   -1.321265
N      -0.550530   -2.844195    0.407598
C      -0.062190   -2.125513    1.504768
O       0.576547   -2.590943    2.413855
H       0.800852    1.649928    0.268607
H       0.777790   -0.577535   -0.562498
H      -0.664964   -0.067823    2.150309
H      -2.239979   -0.074103   -0.073873
H      -0.397277   -3.836764    0.302480
