15

N      -0.038375   -1.175494    0.011357
C      -0.027383   -0.018055    0.016570
C      -0.012893    1.418850    0.030662
C      -0.401662    2.201837   -1.269909
N       0.866205    2.988738   -1.213697
C       1.318628    2.253139   -0.018109
C       0.916929    2.897567    1.340709
O      -0.365643    3.507307    1.168539
C      -0.328795    2.109943    1.397343
H      -0.487707    1.543040   -2.138196
H      -1.295879    2.822014   -1.179741
H       1.460746    2.822792   -2.016736
H       2.294623    1.767108   -0.040808
H       1.550319    3.295427    2.124623
H      -0.900906    1.700938    2.221349
