15

O       0.007789    1.369385    0.303200
C       0.060346   -0.012272    0.020409
C      -1.317620   -0.611350   -0.081145
O      -2.000691   -1.025960    1.118822
C      -1.731550   -2.006055    0.094797
C      -2.918579   -2.237820   -0.800084
C      -3.260401   -1.111680   -1.442018
C      -2.302625   -0.025344   -1.099381
O      -2.253673    1.097379   -1.552714
H      -0.561551    1.768352   -0.369153
H       0.603950   -0.219889   -0.916810
H       0.605737   -0.493258    0.838083
H      -1.054870   -2.807617    0.372627
H      -3.433840   -3.188779   -0.861830
H      -4.104000   -0.959922   -2.102354
