20

C      -0.004602    1.592791   -0.090648
C      -0.054696    0.061022   -0.029050
C      -1.471005   -0.518500    0.084051
O      -2.293514   -0.113245   -0.990879
C      -1.458185   -2.025222    0.306253
C      -1.453186   -1.857168    1.780323
C      -2.067485   -0.430598    1.536075
C      -3.403046   -1.169577    1.383064
N      -2.648367   -2.445869    1.120884
H       1.031208    1.942713   -0.121710
H      -0.492854    1.984447   -0.990998
H      -0.482725    2.051862    0.781329
H       0.414783   -0.351980   -0.930332
H       0.537283   -0.288252    0.823745
H      -2.236748    0.844078   -1.077962
H      -0.997055   -2.788151   -0.307995
H      -0.884608   -2.324812    2.572087
H      -1.943581    0.467012    2.140526
H      -3.946100   -1.285660    2.324144
H      -4.074303   -0.850345    0.581404
