19

O       0.092903    1.467370   -0.110481
C       0.063713    0.043136   -0.017478
C       0.684635   -0.494534    1.263557
C      -0.154667   -1.228406    1.996739
C      -1.510118   -1.334387    1.357109
C      -2.662317   -0.424726    1.861010
C      -2.221121    1.005441    1.966105
C      -2.517056    0.448800    0.605474
C      -1.396018   -0.462104    0.067671
H       1.013745    1.738858   -0.177677
H       0.569812   -0.383606   -0.898694
H       1.715881   -0.274569    1.527073
H       0.089913   -1.682304    2.952067
H      -1.836239   -2.364170    1.188425
H      -3.564999   -0.787235    2.337680
H      -2.980478    1.683232    2.344143
H      -1.208525    1.268659    2.250682
H      -3.296997    0.870323   -0.016443
H      -1.704059   -0.981166   -0.840566
