15

C      -0.340223    1.634178   -0.196896
C       0.052621    0.185558    0.013281
C       0.806856   -0.569451   -1.169895
C       1.951453   -0.700839   -0.176712
N       3.123932   -1.141975    0.242501
C       3.101856   -0.676183    1.537864
N       2.011450   -0.006154    1.932457
N       1.308572   -0.040890    0.777485
H       0.491280    2.208585   -0.615493
H      -1.189034    1.694179   -0.885240
H      -0.636754    2.095448    0.749481
H      -0.774617   -0.399297    0.425896
H       0.340449   -1.505899   -1.482321
H       1.002400    0.054092   -2.045069
H       3.926078   -0.834619    2.217920
