22

C      -0.121297    1.508250   -0.115148
C       0.106655    0.013954    0.017817
N       1.337251   -0.613004   -0.692787
C       2.149972   -0.108070    0.517100
C       0.870664   -0.650166    1.208006
C       0.511347   -0.704860    2.671040
C       1.049231   -1.800596    0.207329
C       0.284467   -3.017970   -0.158078
C       1.772492   -3.094949    0.205197
H      -0.305884    1.761327   -1.164547
H      -1.011165    1.795248    0.455823
H       0.710113    2.123046    0.236032
H      -0.804335   -0.518793   -0.276261
H       3.077507   -0.664953    0.670400
H       2.337700    0.966152    0.513460
H       0.450720    0.300766    3.100757
H      -0.459043   -1.191882    2.818560
H       1.260483   -1.266722    3.239869
H      -0.432858   -3.423930    0.548860
H       0.020302   -3.160655   -1.201010
H       2.471313   -3.287650   -0.602461
H       2.040747   -3.551825    1.153004
