17

O      -0.539075    1.479602    0.461750
C      -1.019175    0.191627    0.708098
C      -1.304364   -0.545470   -0.590416
O      -1.049183    0.001636   -1.645994
C      -1.937375   -1.918667   -0.560634
C      -1.712245   -2.935955    0.622377
C      -3.228261   -2.939357    0.854476
O      -3.615584   -1.590352    1.145324
C      -3.453043   -1.963284   -0.222283
H      -0.472780    1.540128   -0.505050
H      -0.288816   -0.403090    1.284056
H      -1.941956    0.200877    1.307633
H      -1.753110   -2.387290   -1.529506
H      -1.319591   -3.887482    0.258670
H      -1.118222   -2.600236    1.474304
H      -3.863684   -3.727274    1.239443
H      -4.287659   -1.795057   -0.891958
