17

O       0.039351   -0.001476   -0.159767
C       0.044686    1.187366   -0.028613
C      -1.075313    2.261637    0.092873
C      -0.042303    3.377753   -0.238836
C       0.514300    4.165394    0.973013
C       1.539957    3.031458    1.227417
C       2.884113    3.105593    0.462155
O       2.379063    2.292013   -0.632789
C       1.093265    2.274636   -0.068938
H      -1.852374    2.126689   -0.663567
H      -1.549919    2.317746    1.076296
H      -0.210312    3.892259   -1.184001
H       0.975476    5.124436    0.720498
H      -0.203444    4.334472    1.780469
H       1.573060    2.553228    2.205543
H       3.179930    4.106007    0.124454
H       3.732279    2.617431    0.952074
