25

C       0.054890    1.640277    0.044045
C      -0.021352    0.110920    0.010006
C       0.654990   -0.489481   -1.228804
C       0.682084   -2.024676   -1.278307
C      -0.716946   -2.657778   -1.384126
C      -0.618347   -4.177869   -1.537936
O       0.178438   -4.551276   -2.648084
C       1.503717   -4.062577   -2.535040
C       1.543000   -2.535610   -2.447014
H       1.095047    1.984825    0.044252
H      -0.437050    2.080330   -0.830652
H      -0.430807    2.045638    0.937246
H       0.450440   -0.299170    0.913233
H      -1.073087   -0.196884    0.049944
H       0.158868   -0.110372   -2.134104
H       1.689430   -0.121017   -1.277586
H       1.141837   -2.385803   -0.344159
H      -1.325261   -2.424957   -0.503204
H      -1.238274   -2.245245   -2.258300
H      -0.204407   -4.618161   -0.612817
H      -1.603727   -4.622767   -1.706242
H       1.991143   -4.499705   -1.644947
H       2.038903   -4.422960   -3.418759
H       1.165661   -2.116955   -3.389375
H       2.581462   -2.199748   -2.336494
