21

C      -0.150649    1.563795   -0.007142
C       0.023810    0.047074   -0.012450
O      -1.263464   -0.581356    0.017155
C       0.894819   -0.496344   -1.198806
C       1.990502   -1.350765   -0.479581
C       1.170121   -1.926180    0.699996
C       0.784242   -0.525163    1.233805
C       2.155894    0.132857    1.282019
C       2.874071   -0.359494    0.268244
H       0.813996    2.076950    0.023952
H      -0.672316    1.894406   -0.914391
H      -0.745878    1.876013    0.856811
H      -1.760586   -0.268604   -0.745932
H       0.270548   -1.122632   -1.843423
H       1.327685    0.299988   -1.809845
H       2.504941   -2.060672   -1.128309
H       0.305099   -2.516626    0.390299
H       1.783584   -2.490870    1.405985
H       0.182454   -0.475609    2.141397
H       2.439172    0.921032    1.968236
H       3.863848   -0.054196   -0.048756
