15

N       0.678131   -0.175503   -0.569011
C      -0.218370    0.392396    0.268780
O      -0.096254    1.474681    0.805194
C      -1.478612   -0.453426    0.538689
O      -1.502369   -1.683520   -0.194866
C      -1.612438   -2.750453    0.685036
N      -1.664968   -3.965732    0.342428
C      -1.650364   -2.199475    2.044206
C      -1.574240   -0.870790    1.979773
H       1.516634    0.330548   -0.801033
H       0.476582   -1.057388   -1.007870
H      -2.335110    0.160495    0.231051
H      -1.622186   -4.062217   -0.672851
H      -1.725037   -2.829644    2.917475
H      -1.559578   -0.150347    2.784595
