17

C       0.923934   -0.376296   -0.568140
C       0.060219   -0.025330    0.622905
O       0.445847    0.661621    1.535631
C      -1.394956   -0.546130    0.620320
C      -1.586685   -1.883390    0.078920
C      -1.747908   -2.989763   -0.369346
C      -1.894951   -4.344921   -0.880260
C      -0.811831   -5.285736   -0.345122
O      -0.273877   -6.127219   -1.010568
H       1.871494    0.159033   -0.505472
H       1.105184   -1.455724   -0.588397
H       0.409791   -0.130331   -1.503792
H      -1.761936   -0.471207    1.648506
H      -1.976080    0.177449    0.028660
H      -2.862278   -4.764117   -0.562601
H      -1.873746   -4.385612   -1.974114
H      -0.566803   -5.134151    0.728488
