19

C       0.054597    1.439615   -0.052899
N      -0.092440   -0.007656   -0.075698
C       0.596069   -0.711929   -1.055476
N       1.172415   -0.098195   -2.079061
N       1.632210   -1.131982   -2.857982
C       1.391961   -2.346393   -2.304944
N       1.866134   -3.517459   -2.907937
C       0.694221   -2.134678   -1.131776
C       0.110843   -3.143464   -0.194826
H       1.094759    1.772456    0.079738
H      -0.300212    1.851204   -1.000842
H      -0.557545    1.844926    0.756938
H      -0.012673   -0.434142    0.836134
H       2.285752   -0.927143   -3.592842
H       1.568130   -3.612327   -3.872616
H       1.579170   -4.340550   -2.394221
H       0.714870   -3.297138    0.710100
H      -0.890520   -2.840671    0.133625
H       0.005266   -4.123764   -0.674746
