14

O      -0.006924   -0.029832   -0.208479
C       0.028163    1.165134   -0.007394
N      -1.145966    1.899481    0.176686
C      -1.217787    3.283362    0.063835
N      -0.231901    4.076774   -0.052782
C       1.077280    3.518109   -0.000088
C       1.542705    2.848426    1.256220
C       1.260039    1.985829    0.039944
H      -1.996512    1.357214    0.119018
H      -2.232710    3.676917    0.067885
H       1.813112    4.087300   -0.557541
H       2.583934    2.958419    1.535101
H       0.849058    2.801730    2.088395
H       2.103757    1.527207   -0.460800
