15

O       0.016630    1.426007    0.008528
C      -0.004116    0.010261    0.003249
C      -1.434228   -0.476593    0.014345
N      -1.582336   -1.806480    0.012528
C      -2.815966   -2.305688    0.021708
C      -3.943605   -1.493045    0.033066
F      -5.157861   -2.050316    0.041996
C      -3.805302   -0.115599    0.035106
C      -2.515093    0.404187    0.025453
H       0.933424    1.713065    0.000817
H       0.496133   -0.402422   -0.886611
H       0.512177   -0.409374    0.880572
H      -2.928811   -3.386748    0.020164
H      -4.683360    0.520204    0.043980
H      -2.337014    1.471070    0.026451
