15

O       0.055342    1.280847    0.146271
C       0.126824   -0.113539    0.133315
C      -0.476803   -0.776022    1.343076
O      -0.932137    0.019553    2.371517
C      -1.230288   -0.789028    0.011026
O      -2.360690    0.052879   -0.241173
C      -2.957717   -0.931080   -1.134398
C      -1.754869   -1.861236   -0.881113
O      -1.406123   -2.947485   -1.236029
H      -0.745312    1.529448   -0.340081
H       0.993136   -0.531737   -0.372894
H      -0.082648   -1.735220    1.667194
H      -0.752118    0.933481    2.102254
H      -3.922104   -1.291276   -0.762598
H      -3.059414   -0.557507   -2.158491
