16

N       0.870722   -0.163209   -0.119640
C      -0.284489    0.305172    0.136773
N      -1.410002   -0.479194   -0.006031
C      -1.400999   -1.840676   -0.459020
C      -1.921210   -2.868273    0.528243
C      -2.851038   -2.205200   -0.454267
O      -3.571931   -1.070890   -0.001057
C      -2.706615   -0.045521    0.273593
N      -3.009216    1.095697    0.720451
H       1.577566    0.554317    0.026885
H      -0.539995    1.312861    0.471552
H      -0.682938   -2.082023   -1.230055
H      -1.669426   -3.905050    0.333565
H      -1.989706   -2.590362    1.574116
H      -3.368604   -2.744882   -1.235959
H      -4.014093    1.179347    0.848414
