20

C       0.011528    1.638899    0.116979
C      -0.072007    0.127918    0.347588
C      -1.448021   -0.487429    0.143070
C      -2.678844    0.305466    0.268574
O      -2.169804   -0.057472   -1.022141
C      -1.558341   -1.998558    0.372451
C      -0.784504   -2.814302   -0.662450
O      -1.197248   -2.339507    1.708350
H       1.054340    1.968253    0.120149
H      -0.428264    1.903455   -0.848490
H      -0.511211    2.199328    0.897827
H       0.627186   -0.373167   -0.333936
H       0.256552   -0.116268    1.365054
H      -3.604132   -0.189123    0.561500
H      -2.633185    1.366979    0.499314
H      -2.619966   -2.255751    0.286422
H       0.296404   -2.647095   -0.583297
H      -0.972783   -3.881216   -0.514913
H      -1.095780   -2.537323   -1.673425
H      -0.240664   -2.441456    1.741238
