19

C      -0.788407    1.286561   -0.040661
C      -0.113260   -0.100916    0.018440
N      -1.001180   -1.260925    0.120427
C      -1.751355   -1.368246    1.356888
C      -3.182916   -0.822570    1.283936
C      -3.977723   -0.830839    2.573153
O      -3.644945   -0.439293    0.233379
C       0.749937   -0.282902   -1.162976
N       1.418745   -0.396162   -2.097961
H      -0.038175    2.076968   -0.134826
H      -1.471389    1.345015   -0.891238
H      -1.362342    1.464738    0.872386
H       0.551481   -0.129167    0.892131
H      -1.661610   -1.247238   -0.652978
H      -1.839262   -2.425529    1.655262
H      -1.216585   -0.880987    2.181749
H      -3.563805   -0.089187    3.266790
H      -5.021506   -0.588995    2.370493
H      -3.907765   -1.804129    3.070203
