16

O      -0.020963    1.479465    0.025611
C       0.100463    0.072998    0.141450
C      -1.244293   -0.588324    0.022381
C      -2.330766   -0.483660    1.100720
O      -2.655756   -1.892224    0.953352
C      -1.623199   -2.086186   -0.033272
C      -2.101408   -1.762560   -1.438405
N      -2.580207   -2.416389   -2.390225
O      -1.814759   -0.403400   -1.320012
H      -0.394616    1.659896   -0.844796
H       0.782923   -0.345190   -0.613658
H       0.527315   -0.126143    1.129443
H      -1.955284   -0.269057    2.107531
H      -3.170226    0.174983    0.860850
H      -0.995683   -2.959246    0.144718
H      -2.805165   -1.819114   -3.188223
