15

N      -0.052820    1.408695   -0.112491
C       0.026613    0.029560   -0.043680
C      -1.163498   -0.731059   -0.042047
N      -1.211351   -2.051225   -0.017733
C      -0.049742   -2.726615    0.011146
C       1.176015   -2.089896    0.009008
C       1.238987   -0.690024   -0.025901
C       2.562989   -0.037016   -0.066877
O       3.617116   -0.629101   -0.006333
H       0.702555    1.945263    0.281383
H      -0.957761    1.799385    0.102681
H      -2.119277   -0.206868   -0.061104
H      -0.121424   -3.809470    0.035935
H       2.107124   -2.644366    0.027570
H       2.557045    1.069450   -0.176427
