19

O       0.091935    1.346637   -0.001742
C       0.038173   -0.082138    0.031895
C       0.852073   -0.548222   -1.182003
C       2.300968   -0.111482   -1.114491
O       3.237464   -0.869931   -1.155650
C       0.569837   -0.599764    1.400518
C      -0.685596   -0.705234    2.233341
C      -1.783185   -0.677751    1.475691
C      -1.445186   -0.549310    0.009201
H      -0.384582    1.671159    0.771081
H       0.819860   -1.636244   -1.277047
H       0.404964   -0.098539   -2.078851
H       2.448906    0.984360   -1.018749
H       1.058906   -1.578287    1.300659
H       1.321012    0.087620    1.804738
H      -0.668714   -0.823596    3.310859
H      -2.800336   -0.769863    1.839537
H      -2.059041    0.177098   -0.533970
H      -1.559377   -1.514165   -0.503804
