15

C      -0.030531    1.497704   -0.010941
C      -0.006646   -0.006616    0.009579
C       0.065961   -0.731082   -1.171794
F       0.116902   -0.102806   -2.368009
C       0.089450   -2.122873   -1.179945
O       0.160165   -2.823913   -2.331922
C       0.036762   -2.764871    0.054627
C      -0.034795   -1.973391    1.193803
N      -0.056800   -0.636732    1.190921
H       0.868508    1.903008   -0.487508
H      -0.889039    1.873873   -0.577617
H      -0.089166    1.865484    1.013768
H       0.187292   -2.194710   -3.064365
H       0.052079   -3.846754    0.105673
H      -0.077149   -2.445465    2.172055
