20

C      -0.169883    1.593842    0.152453
C      -0.245176    0.064545    0.156646
C       0.793302   -0.565147    1.085593
O       0.610287   -0.073392    2.422177
C       0.231981   -1.162061    3.245650
O      -0.169123   -2.206322    2.403599
C       0.696350   -2.099379    1.273339
C       0.151400   -2.933485    0.130239
H       0.806188    1.940470   -0.205883
H      -0.936669    2.024403   -0.498398
H      -0.313613    1.986140    1.162205
H      -1.243368   -0.260276    0.472972
H      -0.088693   -0.318097   -0.859710
H       1.801751   -0.283058    0.753422
H       1.091761   -1.466729    3.870265
H      -0.610282   -0.876614    3.885123
H       1.696437   -2.472497    1.553694
H      -0.858268   -2.620218   -0.144273
H       0.797796   -2.846625   -0.748470
H       0.115702   -3.986176    0.423053
