19

C       0.210981    1.525096   -0.161407
C       0.130492    0.016498    0.014159
O       0.584503   -0.561886   -1.230826
C       1.130060   -1.796983   -1.343302
O       1.290160   -2.263957   -2.438185
C       1.590612   -2.500681   -0.075499
C       0.895743   -2.033393    1.204443
C       0.882418   -0.504377    1.238588
O       2.196750    0.036408    1.216253
H       1.251766    1.837959   -0.258166
H      -0.338266    1.825033   -1.056715
H      -0.228059    2.029781    0.704747
H      -0.919358   -0.284239    0.136422
H       1.483809   -3.573812   -0.243753
H       2.664376   -2.293994   -0.003491
H      -0.137117   -2.400233    1.245821
H       1.405822   -2.435756    2.087806
H       0.331632   -0.149062    2.123667
H       2.664015   -0.276317    1.997249
