14

O       0.062275    1.344747   -0.020799
C       0.055995   -0.011085   -0.027108
C      -0.019775   -0.721332   -1.226886
N      -0.032864   -2.052909   -1.271422
C       0.012771   -2.745354   -0.134018
C       0.090071   -2.129874    1.116930
O       0.130027   -2.867739    2.253728
C       0.133735   -0.738206    1.158482
O       0.181565   -0.076339    2.382889
H      -0.007560    1.626778    0.901340
H      -0.072336   -0.178975   -2.166240
H      -0.013637   -3.829259   -0.195275
H       0.054993   -2.253201    2.996341
H       1.104923    0.069756    2.625555
