19

O       0.079553    1.356595   -0.119533
C       0.062360   -0.041678   -0.029061
C      -0.476370   -0.765145   -1.235329
C      -1.281231   -0.723071    0.036115
O      -1.413428   -1.901486    0.773790
C      -1.310917   -1.677333    2.177180
C       0.136539   -1.645568    2.671276
O       0.916154   -0.567658    2.183196
C       1.183831   -0.650483    0.785793
H       0.014423    1.697045    0.781058
H      -0.823793   -0.158050   -2.063127
H      -0.017690   -1.709085   -1.507417
H      -2.154376   -0.069504    0.052583
H      -1.826195   -0.746493    2.455085
H      -1.827193   -2.512142    2.665826
H       0.134843   -1.552271    3.763568
H       0.617139   -2.602638    2.411216
H       1.359307   -1.694396    0.494768
H       2.100897   -0.079431    0.609154
