19

C       0.016280    1.619548   -0.022376
C       0.081933    0.110508    0.084217
O       1.063478   -0.491519   -0.817972
C       1.622911   -1.237934    0.258675
C       2.226727   -0.338100    1.286959
C       0.726857   -0.584125    1.292952
C      -0.001484   -1.149590    2.450419
C      -1.194432   -0.514248    3.030922
O      -1.313326   -1.673044    2.203836
H       0.969036    2.086782    0.240188
H      -0.234986    1.909599   -1.047535
H      -0.761547    2.015510    0.639437
H      -0.897844   -0.339571   -0.113896
H       1.894955   -2.271858    0.080400
H       2.759784   -0.839845    2.089843
H       2.639777    0.622555    0.994311
H       0.604502   -1.771716    3.111521
H      -1.429077   -0.661724    4.084401
H      -1.576866    0.409341    2.598299
