17

C      -0.219322    1.442016    0.245734
N       0.104415    0.021288    0.236652
C       1.397952   -0.492235   -0.156348
C       2.582294    0.334646    0.334189
N       3.362980   -0.352160    1.345421
C       2.067059    0.207868    1.767689
C       2.067952    1.242867    2.820086
O       1.076626    1.590773    3.415540
C       0.887213   -0.618408    1.269070
H       0.607912    2.099819    0.539212
H      -0.551239    1.725320   -0.757695
H      -1.044856    1.603867    0.943185
H       1.447762   -1.247450   -0.933992
H       3.020745    1.209890   -0.130692
H       3.304691   -1.364842    1.252868
H       3.067132    1.686124    3.017129
H       0.474918   -1.484480    1.775121
