18

C      -0.065699    1.563908   -0.148173
C       1.482207    1.593054    0.010086
C       1.401878    0.157485    0.580693
C      -0.042524    0.021798    0.062371
C       2.468615   -0.959999    0.543377
C       3.276582   -0.226519    1.639706
C       1.780500   -0.241978    2.030707
O       1.712894   -1.663034    1.612572
H      -0.571919    2.085089    0.668572
H      -0.470949    1.929962   -1.093617
H       1.998020    1.623960   -0.954956
H       1.907570    2.369409    0.651438
H      -0.774973   -0.410428    0.746502
H      -0.090114   -0.527184   -0.883192
H       2.819604   -1.557915   -0.299369
H       3.916280   -0.868808    2.245943
H       3.740268    0.731114    1.391278
H       1.303426    0.026737    2.974727
