15

C       0.102063    1.413901    0.357426
N      -0.021555   -0.007209    0.092145
C      -1.127055   -0.588072   -0.138740
N      -1.119968   -1.956026   -0.379626
C      -2.258479   -2.688572   -0.641096
C      -3.448359   -2.090826   -0.673054
O      -3.578204   -0.735181   -0.448139
C      -2.499469    0.059833   -0.183477
O      -2.676279    1.231080    0.002367
H       1.160472    1.636036    0.519119
H      -0.260860    2.027607   -0.474252
H      -0.459697    1.723803    1.245383
H      -0.211060   -2.391881   -0.351587
H      -2.139320   -3.747967   -0.814846
H      -4.393138   -2.571351   -0.867468
