21

C      -0.855700    0.972841   -0.178076
C       0.039920   -0.239179    0.106671
C      -0.751186   -1.373009    0.748783
O      -0.290927   -2.453586    1.037053
C       0.768884   -0.728553   -1.139665
C       2.175549   -0.258218   -1.496417
C       2.959455    0.719578   -0.648235
C       1.944815   -1.673438   -1.028000
O       2.412419   -2.014030    0.239304
H      -0.263805    1.804279   -0.568133
H      -1.621203    0.731166   -0.924245
H      -1.366730    1.316797    0.727405
H       0.787437    0.035871    0.860974
H      -1.820869   -1.155305    0.966631
H       0.102018   -0.896837   -1.982993
H       2.344842   -0.150582   -2.564770
H       2.964838    0.421747    0.401775
H       4.003494    0.746566   -0.977328
H       2.562518    1.737969   -0.727235
H       2.015957   -2.470074   -1.769255
H       1.668786   -2.441656    0.693160
