14

O       0.106900    0.575021    0.793666
C       0.720227    0.950233   -0.169823
C       1.492813    2.267889   -0.213573
C       1.156903    3.004653   -1.515147
O       1.234086    2.484435   -2.596855
C       1.274138    3.114443    1.016658
C       2.266489    3.202339    2.090586
O       2.130171    4.255325    1.133098
H       0.765157    0.370096   -1.112890
H       2.555159    1.997337   -0.306860
H       0.826987    4.057101   -1.389765
H       0.231590    3.304149    1.269737
H       1.943954    3.444089    3.101228
H       3.185924    2.622521    2.021347
