15

O       0.809862    0.794644    1.380405
C       0.375412    1.374353    0.405588
N       1.063655    1.562180   -0.749946
C       2.451125    1.126899   -0.889907
C       3.446101    2.091070   -0.315702
N       4.247834    2.824280   -1.093250
N       4.951111    3.532565   -0.219954
N       4.683724    3.331165    1.064051
C       3.721090    2.410849    1.028486
H      -0.646846    1.797584    0.357750
H       0.671235    2.167134   -1.453670
H       2.531951    0.162970   -0.381387
H       2.664239    0.980432   -1.950721
H       5.661695    4.181975   -0.515919
H       3.265836    2.024346    1.925519
