19

C      -0.067441    1.588392    0.047907
C      -0.046199    0.055872    0.044322
C      -1.464764   -0.536508    0.038376
O      -2.160465   -0.189446   -1.140000
O       0.611801   -0.455679   -1.122978
C       1.976010   -0.751534   -0.810175
C       1.966352   -1.236716    0.640151
C       0.768896   -0.488216    1.225334
O       0.492726   -0.340984    2.386871
H       0.934260    1.998794   -0.109425
H      -0.724320    1.940645   -0.750276
H      -0.441826    1.951837    1.009009
H      -1.396227   -1.628955    0.156147
H      -2.030500   -0.138646    0.885122
H      -1.608907   -0.484725   -1.874570
H       2.323072   -1.497381   -1.528355
H       2.601009    0.147341   -0.919503
H       1.756231   -2.311301    0.700911
H       2.877422   -1.037016    1.206940
