15

N       0.005160    1.352557    0.074195
C       0.061971   -0.003733    0.022959
N       1.183478   -0.630411   -0.007112
C       1.210792   -1.994437   -0.015051
C       2.301985   -2.825555    0.011362
N       3.650071   -2.463520    0.136358
C       1.727538   -4.122411   -0.017390
N       0.415226   -4.094134   -0.064202
O       0.074373   -2.743350   -0.048899
H       0.859389    1.865046   -0.080487
H      -0.858555    1.819786   -0.138359
H      -0.910730   -0.500344    0.045497
H       3.756618   -1.461784    0.022820
H       4.249081   -2.939355   -0.527775
H       2.230900   -5.079704   -0.009572
