16

C      -0.042676    1.592582    0.049766
C       1.496945    1.407793    0.012699
C       1.857957    0.677012    1.322151
O       2.944424   -0.224837    0.983235
C       1.945569   -0.945501    0.242662
C       1.303031    0.054683   -0.780897
C      -0.070090    0.053713   -0.024234
C       0.791357   -0.470258    1.163222
H      -0.480368    2.087772    0.924005
H      -0.428678    2.056432   -0.862496
H       2.175291    2.192596   -0.318498
H       2.027434    1.249183    2.233454
H       2.215451   -1.964135   -0.032405
H       1.428144    0.024967   -1.860362
H      -0.941541   -0.521733   -0.332032
H       0.418515   -1.002539    2.035276
