20

C      -0.409498    1.447669   -0.068639
C      -0.058191   -0.037164    0.005533
C       1.132971   -0.470023   -0.897196
C       2.076497   -0.521737    0.343411
N       2.866565   -1.742682    0.469853
C       2.875836    0.698457    0.505583
N       3.512185    1.649198    0.685512
C       0.769107   -0.475330    1.252227
N       0.662166    0.313624    2.448862
H       0.476564    2.087495    0.003025
H      -0.897707    1.673249   -1.022372
H      -1.094160    1.726104    0.737788
H      -0.967894   -0.626787   -0.135006
H       1.022076   -1.476967   -1.304143
H       1.418136    0.218111   -1.695261
H       3.581959   -1.772899   -0.253142
H       3.365035   -1.744736    1.356997
H       0.552680   -1.518889    1.497303
H       1.176524   -0.101936    3.218082
H       1.027558    1.251320    2.314214
