20

C       0.069660    1.584835   -0.015246
C       0.024950    0.087236   -0.037845
C       0.529701   -0.901319   -1.124372
C       0.820230   -1.873395   -0.045294
C       0.596467   -0.866443    1.097778
C      -0.839249   -1.134736    1.603300
C      -1.237649   -0.834851    0.145053
C      -2.635941   -0.538769   -0.316080
N      -0.523363   -1.881920   -0.714868
H       1.099900    1.953320   -0.084139
H      -0.492544    2.014094   -0.852906
H      -0.361234    1.979869    0.911978
H       0.887882   -0.803688   -2.143032
H       1.395363   -2.791048   -0.056841
H       1.428320   -0.598270    1.747228
H      -1.077446   -2.120441    2.013694
H      -1.190187   -0.350222    2.281607
H      -3.077199    0.282276    0.258256
H      -2.646991   -0.262567   -1.375838
H      -3.272507   -1.422623   -0.197327
