25

C      -0.047700    1.274802   -0.545327
C       1.023286    2.055665    0.260574
C       1.943595    0.995102    0.943893
C       1.555326   -0.333841    0.255144
C       0.054462   -0.194264   -0.076244
C      -0.882231   -0.526283    1.100040
C      -0.719660    0.294422    2.392171
C       0.649410    0.135994    3.075012
C       1.811341    0.959678    2.484335
H      -1.055326    1.682387   -0.414357
H       0.175474    1.330522   -1.616017
H       1.605387    2.705856   -0.399221
H       0.567398    2.711367    1.008387
H       2.989254    1.234835    0.725684
H       2.117727   -0.437625   -0.680478
H       1.783464   -1.217029    0.860812
H      -0.216156   -0.872021   -0.894105
H      -1.917457   -0.421328    0.749570
H      -0.755171   -1.588208    1.353486
H      -0.928730    1.354983    2.202684
H      -1.497398   -0.037964    3.090609
H       0.557729    0.404904    4.134166
H       0.913562   -0.929838    3.066155
H       2.743176    0.566698    2.910254
H       1.736493    1.994816    2.842312
