21

C       0.250414    1.476561    0.114629
C       0.107767   -0.033814   -0.147948
C      -1.273338   -0.500897   -0.073909
C      -2.421501   -0.862991   -0.020664
C      -3.807642   -1.319929    0.081225
C      -3.910701   -2.858968    0.064440
C      -4.455550   -0.758427    1.339897
C      -5.249410    0.472332    1.325590
O      -5.880673   -0.812064    1.384328
H       1.299825    1.778775    0.047512
H      -0.322283    2.053346   -0.616662
H      -0.119497    1.734190    1.110809
H       0.519533   -0.273479   -1.136862
H       0.719998   -0.589895    0.573731
H      -4.379329   -0.931098   -0.772242
H      -4.959239   -3.159841    0.138873
H      -3.489646   -3.263927   -0.859064
H      -3.361042   -3.291720    0.905905
H      -3.963746   -1.046159    2.270651
H      -5.335125    1.076617    2.227282
H      -5.380139    1.013599    0.389412
