16

C       0.063649    1.312867    0.060343
O      -0.026939   -0.101318   -0.063626
C       0.699666   -0.617822   -1.132744
O       2.097430   -0.474903   -0.977050
C       2.701991   -1.736926   -0.998048
O       3.888886   -1.853466   -0.896378
C       1.648698   -2.740179   -1.153193
C       0.459334   -2.113194   -1.199934
N      -0.817912   -2.558240   -1.326974
H       1.091225    1.623559    0.274629
H      -0.278378    1.812033   -0.857932
H      -0.586341    1.598228    0.889219
H       0.413268   -0.107475   -2.067956
H       1.858701   -3.798265   -1.172749
H      -0.993221   -3.537686   -1.164861
H      -1.529535   -1.939802   -0.965653
