19

C      -0.154230    1.487278    0.015003
C       0.009136   -0.003152    0.012510
C       0.562640   -0.761065   -1.213541
C       0.758816   -2.056690   -0.412787
O       1.777250   -1.649990    0.549816
C       0.739106   -0.876786    1.165609
C       1.007296   -0.330883    2.532089
C      -0.371501   -1.818356    0.688372
O      -1.224072   -0.760914    0.259437
H       0.813565    1.972987   -0.144529
H      -0.829638    1.803148   -0.787135
H      -0.567868    1.838414    0.964711
H      -0.185623   -0.810102   -2.007520
H       1.517153   -0.392831   -1.594762
H       0.967925   -3.003639   -0.905759
H       1.804892    0.419053    2.503096
H       0.104492    0.141477    2.930328
H       1.313303   -1.129550    3.213849
H      -0.845685   -2.641112    1.220838
