18

C       0.271663    1.550058   -0.151278
C       0.093348    0.047778   -0.001811
O       0.706268   -0.590115   -1.129611
C       1.205537   -1.876559   -0.759085
C       2.366658   -2.216303   -1.574370
C       3.314182   -2.547757   -2.233477
C       1.472480   -1.783087    0.740736
N       2.233475   -0.575484    1.099892
C       0.760719   -0.579354    1.211776
H       1.334195    1.799774   -0.108494
H      -0.132870    1.885968   -1.109632
H      -0.255226    2.079399    0.649376
H      -0.979971   -0.206592    0.031950
H       0.427858   -2.645110   -0.912691
H       4.157831   -2.822729   -2.816799
H       1.567472   -2.693023    1.322342
H       2.643975   -0.702983    2.021588
H       0.282336   -0.523545    2.183873
