16

O       0.036593    0.003485    0.047311
C       0.008029    1.198805    0.002695
C      -1.180468    2.178960    0.043060
C      -0.862886    2.973931    1.313283
C       0.650271    3.214246    1.075268
C      -0.405862    4.109919    0.461865
N      -0.732458    3.383292   -0.798605
C       0.614080    2.994007   -1.306641
C       1.128505    2.257393   -0.041244
H      -2.177731    1.801385   -0.163207
H      -1.351157    2.944362    2.277205
H       1.282106    3.532245    1.892323
H      -0.492036    5.184328    0.562625
H       0.532271    2.347380   -2.186881
H       1.187552    3.888265   -1.562854
H       2.150801    1.892319   -0.000506
