21

O       0.036284    1.484002    0.001606
C       0.095273    0.080785    0.142133
C      -1.304516   -0.531981    0.026465
O      -1.924615   -0.044914   -1.169110
C      -1.331124   -2.068153    0.099024
C      -2.780279   -2.639041    0.114052
C      -2.779168   -3.866148   -0.833955
C      -1.498949   -3.701475   -1.614055
C      -0.712352   -2.753121   -1.106051
H      -0.586007    1.635537   -0.722236
H       0.764222   -0.366367   -0.614027
H       0.523435   -0.135659    1.127624
H      -1.914283   -0.123080    0.841449
H      -1.630497   -0.611673   -1.894197
H      -0.785360   -2.356471    1.009898
H      -3.114335   -2.888407    1.123733
H      -3.456207   -1.874247   -0.278090
H      -2.763971   -4.815162   -0.280207
H      -3.666771   -3.904533   -1.475696
H      -1.243383   -4.335211   -2.457010
H       0.280357   -2.513550   -1.472194
