18

C      -0.008102    1.530123   -0.001576
C       0.074702    0.022851   -0.089512
C       0.676488   -0.766389   -1.223398
N      -0.074319   -1.788083   -1.843493
C       1.967279   -0.105742   -1.737577
N       2.497179    0.039272   -0.340961
C       1.352712   -0.745584    0.179994
C       1.501562   -1.757678    1.165623
N       1.648628   -2.593025    1.955225
H       0.951875    1.991939   -0.240465
H      -0.769618    1.920081   -0.685234
H      -0.281128    1.835275    1.013254
H      -0.786849   -0.512285    0.303765
H      -0.842857   -1.423526   -2.395870
H       0.492733   -2.391639   -2.427950
H       2.555713   -0.806560   -2.340509
H       1.872760    0.841537   -2.280017
H       3.363902   -0.475830   -0.226261
