17

O       0.138641    1.361538   -0.057157
C       0.034463   -0.029806   -0.041843
C       0.223697   -0.791970   -1.379927
N      -0.955906   -1.629126   -1.038493
C      -1.356045   -0.707780    0.055475
C      -1.419936   -1.406507    1.424496
N      -0.022160   -1.420092    1.843776
C       0.808280   -0.595467    1.153078
O       1.948181   -0.280680    1.439151
H       1.003725    1.566520    0.327214
H       0.073449   -0.099526   -2.217307
H       1.152871   -1.351309   -1.529915
H      -1.638191   -1.720243   -1.781552
H      -2.217752   -0.066515   -0.146575
H      -2.041564   -0.855168    2.142267
H      -1.815405   -2.421242    1.317952
H       0.285265   -1.831264    2.711748
