19

C       0.016754    1.437056    0.094444
C      -0.110008   -0.071485    0.071275
O      -0.299337   -0.718249    1.075376
C       0.003634   -0.772256   -1.308563
C       1.186156   -0.218808   -2.124643
C       0.105206   -2.284906   -1.096214
O       0.087640   -2.883704   -2.385617
C      -1.318516   -0.480934   -2.037124
O      -1.519681    0.490151   -2.718214
H       1.067002    1.720873   -0.034991
H      -0.542169    1.893595   -0.727022
H      -0.332894    1.811207    1.057307
H       2.108931   -0.235771   -1.536599
H       1.331192   -0.842411   -3.008816
H       0.988941    0.802189   -2.453494
H       1.026051   -2.521813   -0.545627
H      -0.738191   -2.623352   -0.480891
H       0.086685   -3.838947   -2.277079
H      -2.114373   -1.234456   -1.856545
