22

C      -0.009261    1.560702    0.721274
C       0.022431    0.105024    0.303193
C       0.293541   -0.348156   -1.098624
C       0.552548    0.606248   -2.249000
C       1.384465   -0.048149   -3.371398
C       1.482895    0.845047   -4.585910
O       2.509447    1.224426   -5.087098
N       1.253323   -0.619823   -0.023992
C       2.543199    0.051154    0.022673
H       0.636613    2.203862    0.121336
H      -1.030452    1.948471    0.640405
H       0.297592    1.665161    1.767838
H      -0.671285   -0.505824    0.882443
H      -0.219332   -1.253039   -1.431591
H      -0.417264    0.922154   -2.657221
H       1.054150    1.518475   -1.916508
H       2.393939   -0.296661   -3.033826
H       0.890092   -0.980013   -3.682774
H       0.494795    1.153834   -5.004781
H       2.567023    1.084939   -0.350287
H       2.891371    0.065011    1.060574
H       3.263945   -0.531830   -0.559972
