18

C      -0.092229    1.501030    0.155014
C      -0.067454    0.016521    0.002974
C      -0.015938   -0.718532   -1.127475
C       0.042258   -0.286086   -2.556577
C       0.020208   -2.171771   -0.786676
O      -0.012374   -3.095692   -1.567106
C       0.061363   -2.264086    0.727699
N       1.277371   -1.606535    1.298042
C      -0.017325   -0.875850    1.214305
H       0.804900    1.842931    0.686932
H      -0.137664    2.019465   -0.804703
H      -0.952227    1.818469    0.757908
H       1.029327   -0.496461   -2.985093
H      -0.679544   -0.854267   -3.151842
H      -0.161814    0.779923   -2.680291
H      -0.374921   -3.116823    1.232976
H       1.393910   -1.961149    2.248660
H      -0.531268   -0.599820    2.128820
