18

C       0.077591   -1.231886    0.142449
C       0.036913   -0.033598    0.056835
C      -0.016074    1.423844   -0.026681
C      -0.826045    2.019080    1.159027
C      -0.731518    3.538636    1.202214
N       0.196135    4.101217    2.207746
C       0.534782    4.176349    0.763226
C       1.621727    3.291758    0.272808
C       1.377428    2.036531   -0.099148
H       0.113969   -2.290812    0.211521
H      -0.542778    1.681059   -0.959357
H      -1.868211    1.695238    1.083188
H      -0.421537    1.613844    2.089841
H      -1.653826    4.083744    1.018481
H      -0.146141    5.009203    2.516194
H       0.478258    5.158834    0.298434
H       2.627576    3.698939    0.213381
H       2.171912    1.398809   -0.473301
