19

C      -0.246305    1.521344   -0.055543
C       0.006444    0.034487    0.017183
C      -1.135684   -0.929241    0.361690
O      -0.287994   -1.680669    1.268390
C       0.778928   -0.724296    1.150898
C       1.867047   -1.159379    0.152705
O       2.102503   -2.549387    0.114992
C       1.000185   -0.596901   -1.030638
O       0.504883   -1.594798   -1.880716
H       0.689937    2.084602   -0.140479
H      -0.856160    1.767852   -0.933058
H      -0.775248    1.884252    0.832160
H      -1.971551   -0.459993    0.897777
H      -1.516904   -1.543597   -0.459277
H       1.082958   -0.310877    2.117668
H       2.792291   -0.587722    0.299847
H       2.905452   -2.705932   -0.392660
H       1.500057    0.163547   -1.641534
H       0.688808   -2.433751   -1.431365
