21

C      -0.004247    1.494326   -0.170428
O       1.390872    1.606206    0.167011
C       1.470363    0.208241    0.500990
C       0.010781   -0.047248    0.030498
C      -0.957296   -0.667630    0.979895
C      -1.715185   -1.741017    0.735742
C      -2.620170   -2.096890    1.888674
C      -2.048205   -1.243675    3.049389
C      -1.244023   -0.110708    2.365206
H      -0.641438    2.046306    0.532435
H      -0.213621    1.843039   -1.188557
H       2.252922   -0.309588   -0.066150
H       1.646471    0.049779    1.572951
H      -0.016083   -0.580371   -0.922623
H      -1.719665   -2.286372   -0.202931
H      -3.662405   -1.830395    1.659420
H      -2.624408   -3.168675    2.117605
H      -2.821171   -0.867233    3.724024
H      -1.368315   -1.858127    3.648205
H      -0.338885    0.155069    2.922670
H      -1.833803    0.813917    2.288392
