18

O      -0.015095    1.232747   -0.000129
N       0.020234   -0.166403    0.129325
C      -1.140794   -0.665650    0.050568
C      -2.535388   -0.157037   -0.247500
C      -2.931966   -1.635819   -0.553152
C      -1.566591   -2.124386    0.044290
C      -0.739922   -3.138195   -0.755552
C       0.592655   -3.446682   -0.099144
O       0.944516   -4.552854    0.225159
H       0.916753    1.468265    0.065525
H      -3.033155    0.260344    0.633535
H      -2.613109    0.568833   -1.060044
H      -3.830587   -2.014283   -0.064258
H      -3.001045   -1.833890   -1.625361
H      -1.708369   -2.491099    1.068576
H      -1.290409   -4.076246   -0.876726
H      -0.536520   -2.720350   -1.751308
H       1.236618   -2.558383    0.073122
