16

O      -0.238312    0.446604   -0.707536
C       0.216974    1.080727    0.216002
C       1.401929    1.955494    0.103439
O       1.819167    2.577789    1.289362
C       2.457388    3.811742    0.922633
C       2.807840    3.612443   -0.545966
N       3.680120    2.368819   -0.609298
C       2.462498    1.609243   -0.955613
C       1.596620    2.826035   -1.119955
H      -0.225474    1.052729    1.234094
H       1.770862    4.658616    1.071041
H       3.344261    3.938618    1.547894
H       3.187407    4.486355   -1.073294
H       4.251216    2.429819   -1.449910
H       2.465444    0.653321   -1.465160
H       0.816519    3.113072   -1.813101
