16

O      -0.040749    1.636427    0.365658
C       0.022277    0.283175    0.754658
C      -1.171951   -0.513577    0.244595
C      -2.463778    0.152466    0.038786
O      -1.588182   -0.120144   -1.070440
C      -1.125197   -1.987964    0.514922
C      -1.493864   -2.973027   -0.506805
O      -0.121365   -2.723718   -0.190465
H      -0.215923    1.628253   -0.584353
H       0.937832   -0.207645    0.390160
H       0.045947    0.259077    1.849993
H      -3.380013   -0.434619    0.052070
H      -2.558767    1.203717    0.297126
H      -1.219747   -2.260568    1.567826
H      -1.874285   -3.945882   -0.199526
H      -1.815416   -2.615046   -1.481237
