23

C       0.019196    1.524227    0.007544
C      -0.053410    0.002560    0.155072
C      -1.456034   -0.539488   -0.087580
O      -1.422887   -1.944184    0.071744
C      -2.694970   -2.582495   -0.007251
C      -3.152236   -2.768465   -1.463951
C      -2.602679   -3.867627    0.685935
C      -2.552054   -4.936250    1.237134
C      -2.478272   -6.223098    1.913415
H       1.035391    1.887894    0.184847
H      -0.276137    1.843419   -0.998210
H      -0.642130    2.027510    0.721672
H       0.632064   -0.481244   -0.550049
H       0.266452   -0.300414    1.158380
H      -2.168221   -0.091842    0.627800
H      -1.796170   -0.257519   -1.097746
H      -3.438197   -1.956459    0.516461
H      -3.254345   -1.802591   -1.966613
H      -2.422060   -3.374542   -2.005975
H      -4.120907   -3.274911   -1.494542
H      -3.146898   -6.257931    2.780673
H      -2.758262   -7.043920    1.243945
H      -1.461768   -6.420149    2.271413
