17

C      -0.127541    1.530621    0.069901
C      -0.074940    0.001699    0.059660
C       0.844505   -0.560275    1.161698
C       0.902000   -2.047834    1.180016
N       1.901311   -2.825557    0.900129
C       1.401431   -4.113322    1.058388
C       0.104226   -4.041818    1.430453
O      -0.234700   -2.719465    1.513620
H       0.866352    1.963260   -0.088868
H      -0.785080    1.908035   -0.718924
H      -0.503956    1.908280    1.027115
H      -1.082092   -0.409052    0.192821
H       0.280186   -0.354678   -0.914394
H       1.867982   -0.201411    1.023694
H       0.498861   -0.199405    2.138915
H       2.013460   -4.985714    0.893597
H      -0.668617   -4.753799    1.662667
