21

C       0.246596    1.500839    0.136619
C      -0.204310    0.056038   -0.109420
C       0.549470   -0.588657   -1.252578
C       1.915044   -1.271045   -1.040850
C       2.484880   -1.401381    0.264479
C       2.968446   -1.514284    1.362023
C       0.664467   -2.062064   -1.461714
C       0.040900   -3.076500   -0.533321
O       0.615750   -2.421374   -2.817679
H       1.306887    1.535175    0.405014
H       0.105979    2.117301   -0.758078
H      -0.323797    1.958174    0.950811
H      -0.065023   -0.524773    0.807480
H      -1.278372    0.034932   -0.334307
H       0.504024   -0.035568   -2.187632
H       2.628204   -1.120329   -1.845882
H       3.401192   -1.615787    2.326029
H       0.137626   -2.787089    0.514077
H      -1.019333   -3.206111   -0.771874
H       0.536276   -4.048521   -0.648660
H       1.087066   -3.256501   -2.919579
