23

C       0.046775    1.542160    0.091734
C      -0.007103    0.012093    0.087059
C      -1.433665   -0.537964   -0.010665
C      -1.494338   -2.068582   -0.016210
C      -2.915086   -2.617886   -0.083256
C      -3.008962   -4.156881   -0.070161
O      -4.168932   -4.417401    0.704341
C      -4.165555   -3.410598    1.682311
O      -3.677110   -2.233399    1.071635
H       1.076030    1.906506    0.168423
H      -0.385417    1.956453   -0.826042
H      -0.516944    1.954466    0.935890
H       0.590407   -0.373675   -0.750086
H       0.467338   -0.373956    0.999172
H      -2.033059   -0.165583    0.828520
H      -1.910677   -0.152245   -0.922703
H      -0.931148   -2.461330   -0.874995
H      -1.008941   -2.464586    0.885700
H      -3.427639   -2.212462   -0.967264
H      -3.146473   -4.597952   -1.059308
H      -2.114512   -4.598033    0.398947
H      -5.191144   -3.251229    2.030581
H      -3.517901   -3.692359    2.533346
