14

C      -0.063853    1.459114    0.009440
N      -0.031651    0.009834    0.000662
C      -1.150600   -0.795860    0.003421
N      -2.338297   -0.349458    0.013913
C      -0.591953   -2.209830   -0.008619
O       0.828397   -2.051807   -0.016830
C       1.147025   -0.725479   -0.011034
O       2.266915   -0.304968   -0.016055
H       0.968124    1.809821    0.002143
H      -0.596983    1.829382   -0.870106
H      -0.580777    1.819318    0.902767
H      -3.016219   -1.110581    0.013876
H      -0.891715   -2.772541    0.881204
H      -0.903200   -2.761868   -0.901185
