19

O       0.135759    1.415336    0.012518
C       0.084866   -0.000873    0.006446
C       0.577394   -0.604003    1.357951
C      -0.702539   -0.696340    2.171516
C      -1.765796   -0.679019    1.370178
C      -3.243813   -0.433515    1.517651
C      -3.519702    0.343531    0.234641
C      -2.500157    0.298725   -0.629513
C      -1.366313   -0.543689   -0.090248
H      -0.478982    1.719064    0.691212
H       0.710285   -0.306058   -0.836640
H       1.043813   -1.587987    1.206791
H       1.335512    0.043710    1.810783
H      -0.717902   -0.720159    3.255650
H      -3.833658   -1.362681    1.540812
H      -3.501803    0.119108    2.428412
H      -4.466807    0.841830    0.057566
H      -2.493509    0.754678   -1.612429
H      -1.340140   -1.520557   -0.601420
