16

O       0.018248    0.003386   -0.040960
C      -0.017765    1.200894    0.002213
C      -1.269339    2.096271    0.029680
C      -0.685319    3.517594    0.152882
C       0.639342    3.413694   -0.639688
C       1.206347    2.156358    0.010449
O       1.529855    2.436929    1.393711
C       0.657272    3.264558    2.028294
N      -0.388706    3.806139    1.563945
H      -1.824270    1.957560   -0.906307
H      -1.931223    1.824441    0.855341
H      -1.360261    4.287994   -0.221799
H       0.467571    3.248645   -1.708429
H       1.280189    4.288911   -0.512756
H       2.098043    1.712118   -0.427759
H       0.978177    3.427205    3.054670
