21

O      -0.148470    1.501268   -0.157438
C       0.033175    0.101928    0.025574
C      -1.340525   -0.545052   -0.031834
C      -2.078482   -0.361687   -1.369277
O      -3.106928   -1.346067   -1.370112
C      -2.628842   -2.497951   -0.697568
C      -1.726392   -3.448015   -1.536573
C      -0.478991   -2.966969   -0.742843
C      -1.390719   -2.069461    0.155704
H       0.716943    1.920406   -0.158887
H       0.684756   -0.313212   -0.758573
H       0.508246   -0.114785    0.995722
H      -1.954400   -0.088374    0.754056
H      -2.546561    0.617801   -1.480182
H      -1.386856   -0.506273   -2.216737
H      -3.480985   -2.964979   -0.197724
H      -1.961642   -4.507163   -1.404878
H      -1.730929   -3.222824   -2.605785
H       0.048595   -3.751658   -0.196226
H       0.257216   -2.425802   -1.342199
H      -1.402362   -2.360113    1.207664
