15

C      -0.088544    1.506248    0.004572
C      -0.026532    0.054050   -0.015073
C       0.024063   -1.153065   -0.039348
C       0.104390   -2.552324   -0.062623
C       1.181362   -3.433588   -0.031816
N       2.534933   -3.155255   -0.027636
N       0.711363   -4.707296   -0.071535
N      -0.597687   -4.681823   -0.130816
N      -0.969658   -3.405268   -0.125615
H       0.684380    1.944117   -0.636896
H      -1.059048    1.860429   -0.360037
H       0.051263    1.904420    1.016170
H       2.781474   -2.293266    0.437402
H       3.087850   -3.936539    0.297197
H      -1.947447   -3.164609   -0.161211
