21

C       0.058931    1.522259    0.110360
C      -0.030782    0.033378   -0.008298
C      -0.045838   -0.716361   -1.123730
C      -0.015853   -0.286007   -2.557056
C      -0.047607   -2.166614   -0.749853
O       1.131613   -2.574333   -0.008186
C      -0.066214   -2.262047    0.718418
C      -0.671108   -3.383705    1.516956
C      -0.076801   -0.827391    1.244765
H       0.982588    1.820747    0.623145
H       0.042268    2.021401   -0.861294
H      -0.770469    1.920364    0.709373
H      -0.066752    0.799584   -2.668682
H       0.899406   -0.632690   -3.053660
H      -0.856289   -0.717639   -3.115681
H      -0.454443   -2.928745   -1.410838
H      -0.620673   -4.321459    0.958027
H      -0.132031   -3.522669    2.461045
H      -1.718382   -3.172414    1.757887
H       0.779679   -0.639021    1.904779
H      -0.980565   -0.626127    1.837074
