14

O      -0.023196    1.396070    0.044605
C      -0.061387    0.009845    0.053209
C      -1.347935   -0.787889    0.075655
C      -2.368382   -0.076901   -0.796084
O      -1.416302    0.046462   -1.896451
C      -0.452113   -0.756652   -1.180814
C       0.305168   -1.731572   -1.877884
C       0.961761   -2.555463   -2.459247
H      -0.374388    1.669942   -0.814601
H       0.747148   -0.425331    0.632381
H      -1.540722   -1.600232    0.763192
H      -3.212129   -0.703856   -1.098589
H      -2.724449    0.898982   -0.449698
H       1.539404   -3.281682   -2.975828
