18

C       0.049277    1.606642   -0.150207
C       0.002808    0.078865   -0.011729
C       0.602248   -0.665448   -1.188344
C       1.483374   -1.606601   -0.846386
C       1.666127   -1.664137    0.638245
O       2.884472   -0.959922    1.103798
C       2.130361    0.099537    1.560530
N       2.486576    1.169931    2.111113
C       0.790032   -0.512345    1.188861
H       1.074833    1.964682   -0.266366
H      -0.532665    1.927939   -1.020272
H      -0.368853    2.090549    0.736947
H      -1.052126   -0.212434    0.090930
H       0.317281   -0.426045   -2.208441
H       2.023760   -2.249931   -1.530417
H       1.624115   -2.654533    1.095486
H       3.503504    1.216765    2.200632
H       0.164711   -0.727300    2.055485
