18

C      -0.102967    1.610157   -0.054903
C       1.398333    1.348477   -0.024699
C       1.149520    0.136072    0.925643
N      -0.090538    0.083867   -0.014791
C       1.178197    0.087865   -0.917660
C       1.905069   -0.850946    0.040708
C       3.416621   -1.125823    0.071359
O       3.186977   -2.549049    0.104805
C       1.751231   -2.378032    0.078200
H      -0.568151    2.064846    0.825915
H      -0.540170    2.017814   -0.972319
H       2.248029    2.039334   -0.029545
H       1.020403    0.148602    2.010051
H       1.082866    0.043602   -2.004730
H       3.977958   -0.818488   -0.821104
H       3.950175   -0.772070    0.963675
H       1.269912   -2.788167    0.974628
H       1.297420   -2.834787   -0.809992
