16

C       0.289377    1.329397    0.164714
C      -0.014892   -0.149745    0.023183
C      -1.421081   -0.561090    0.407682
C       0.718116   -0.930569   -1.037922
N       1.033499   -1.112188    0.361420
C       2.269276   -0.842703    0.916265
O       3.331975   -1.076549    0.392002
H       1.315912    1.558666   -0.134944
H      -0.389045    1.915585   -0.463719
H       0.150475    1.663039    1.198841
H      -2.155744   -0.055136   -0.227771
H      -1.553166   -1.640444    0.303465
H      -1.634384   -0.290072    1.447457
H       0.225268   -1.766623   -1.527340
H       1.459452   -0.413818   -1.642538
H       2.178306   -0.447586    1.946603
