13

N      -0.002016   -1.154232   -0.004078
C      -0.024307    0.000385    0.002529
C      -0.019214    1.459893    0.010539
C       1.424235    2.005008   -0.001207
N       1.425889    3.458922    0.006691
N       1.382662    4.207597   -1.086295
N       1.346244    5.430152   -0.656274
N       1.362347    5.422816    0.692756
N       1.408722    4.195668    1.108482
H      -0.561125    1.830339   -0.865703
H      -0.543064    1.820596    0.901704
H       1.973469    1.675522    0.881163
H       1.955361    1.685006   -0.898042
