17

C       0.024790    1.520900    0.040333
N      -0.011757    0.077717    0.129423
C      -1.276292   -0.604843    0.458594
C      -0.459025   -1.661978    1.266696
N      -0.076008   -2.898917    0.627851
C       0.671484   -0.577921    1.258045
C       2.052526   -0.986163    1.006095
N       3.148084   -1.291212    0.801435
H       1.053527    1.854731   -0.127368
H      -0.578927    1.850112   -0.811031
H      -0.359711    2.019068    0.950031
H      -1.941846   -0.007521    1.104355
H      -1.842698   -0.963990   -0.407553
H      -0.849875   -1.885514    2.260446
H      -0.869496   -3.528496    0.568193
H       0.250510   -2.729595   -0.319149
H       0.647509    0.015529    2.187752
