12

N       0.004033    1.333247    0.108922
C      -0.061435   -0.014470    0.038616
N      -1.178536   -0.653461    0.022640
C      -1.125422   -2.039315   -0.002123
N      -2.118743   -2.837822   -0.014141
C       0.241235   -2.597362   -0.020466
F       0.369285   -3.901490   -0.049381
N       1.334967   -1.939460   -0.014415
O       1.189497   -0.544099    0.017889
H       0.878896    1.790112   -0.084002
H      -0.852639    1.839191   -0.037084
H      -2.982221   -2.289555    0.000397
