20

C       0.031842    1.574881    0.099747
C       0.027908    0.044866    0.046956
C       0.743566   -0.592065    1.243434
C       0.731516   -2.110233    1.177082
O       1.423864   -2.600184    2.338796
C       1.518422   -3.934116    2.458228
N       1.027049   -4.735360    1.598231
C       2.227571   -4.313561    3.651438
C       2.812949   -4.682392    4.634519
H       1.054547    1.967554    0.106826
H      -0.484444    2.004305   -0.764203
H      -0.468147    1.940531    1.003339
H      -1.007416   -0.318123    0.006006
H       0.503715   -0.291315   -0.883595
H       1.783094   -0.244566    1.286853
H       0.268207   -0.271531    2.178608
H      -0.287357   -2.513411    1.171601
H       1.231697   -2.486430    0.277658
H       1.204827   -5.699373    1.870293
H       3.331309   -5.004466    5.504255
