20

C      -0.180500    1.550366    0.077009
C      -0.175240    0.030082   -0.101280
C       0.897522   -0.451686   -1.088542
C       0.904410   -1.960980   -1.235239
C       0.064832   -2.662778   -2.248210
C       1.584251   -2.694104   -2.395967
C       2.204036   -1.958982   -3.518940
O       3.218681   -2.298673   -4.078332
H       0.784967    1.908248    0.451195
H      -0.375227    2.060385   -0.873029
H      -0.950765    1.865640    0.787417
H      -0.013100   -0.454132    0.870796
H      -1.160248   -0.307414   -0.447548
H       0.728751    0.026954   -2.060358
H       1.884389   -0.111267   -0.747699
H       1.027440   -2.485218   -0.289973
H      -0.426746   -3.595348   -1.996412
H      -0.477649   -2.049502   -2.962396
H       2.095821   -3.619105   -2.152832
H       1.652574   -1.047255   -3.845001
