21

C       0.209638    1.755357    0.716594
C       0.213069    0.321847    0.152255
C       0.560278   -0.703729    1.203307
N      -0.257826   -1.193226    2.055624
O      -1.552404   -0.664663    1.904800
C       1.958078   -1.236678    1.254418
N       3.038847   -0.237286    1.369537
C       2.828297   -1.207927    2.460123
C       2.399761   -0.659434    3.797790
H       1.193839    2.010119    1.117257
H      -0.042309    2.474216   -0.069351
H      -0.530324    1.847867    1.515372
H      -0.774566    0.087181   -0.255717
H       0.942729    0.252010   -0.660653
H      -2.040129   -1.133310    2.589905
H       2.129292   -2.061022    0.560674
H       3.830836   -0.504023    0.791560
H       3.545425   -2.026331    2.520585
H       1.729367    0.192224    3.673057
H       1.875725   -1.424973    4.378255
H       3.273813   -0.328978    4.369409
