20

C      -0.081157    1.590019    0.043567
C       0.113044    0.107717   -0.011500
N      -0.808476   -0.852006    0.697312
C       0.632075   -0.909331    0.974229
C       1.258241   -1.797493   -0.127033
C       2.789953   -1.750128   -0.128089
C       0.721294   -3.217423   -0.273460
C       0.717819   -0.719443   -1.127773
O       0.912772   -0.520121   -2.292705
H       0.801071    2.111202   -0.340593
H      -0.938839    1.895338   -0.565169
H      -0.257097    1.927273    1.070880
H      -1.250074   -0.305990    1.438667
H       1.035199   -0.719541    1.962139
H       3.193510   -2.373115    0.677583
H       3.179246   -2.124665   -1.079046
H       3.166255   -0.730716    0.009677
H      -0.367452   -3.230104   -0.193565
H       1.003949   -3.629099   -1.247895
H       1.136922   -3.873244    0.500339
