20

C       0.008157    1.544388   -0.002566
C      -0.015763    0.033482   -0.040313
C       0.418793   -0.796853   -1.290219
C      -0.393954   -1.923678   -0.591034
C       0.383310   -2.149586    0.722646
C       0.658233   -0.742831    1.118206
N      -0.315149   -1.554521    1.887616
C      -1.651439   -1.157541    1.407894
C      -1.339952   -0.811363   -0.035579
H       1.036656    1.923759   -0.022315
H      -0.519599    1.972758   -0.861038
H      -0.464635    1.928457    0.908413
H      -0.047585   -0.442012   -2.215155
H       1.488809   -0.959481   -1.453801
H      -0.765298   -2.798269   -1.124107
H       1.033344   -2.997430    0.897148
H       1.542830   -0.384313    1.630839
H      -2.351172   -1.993036    1.517966
H      -2.021139   -0.308387    1.993076
H      -2.134827   -0.467985   -0.695974
