19

C      -0.696150    1.390754    0.553644
O      -0.524029    0.006897    0.757673
C       0.794299   -0.426767    0.499858
C       0.887177   -1.885391    0.893586
C       0.621543   -2.929615   -0.105106
O       1.960934   -2.593619    0.274454
C       0.654344   -2.166678    2.349357
C       1.435811   -3.173816    3.071783
O       1.714200   -1.779252    3.230168
H      -0.489365    1.677127   -0.489372
H      -1.737265    1.627425    0.785027
H      -0.040031    1.983223    1.209609
H       1.056835   -0.314233   -0.563782
H       1.520935    0.154102    1.090595
H       0.280312   -3.910230    0.221621
H       0.335890   -2.644009   -1.116015
H      -0.341313   -1.902026    2.703071
H       1.002059   -3.665434    3.941387
H       2.193058   -3.735483    2.530632
