19

C       0.053159    1.325906   -0.038656
O      -0.087276   -0.073389    0.072699
C       0.656654   -0.633891    1.125111
C       0.351069   -2.131315    1.309576
C       0.691397   -2.703663   -0.093110
C       2.139076   -2.336951    0.278044
C       1.824144   -2.559012    1.770934
O       2.552162   -1.394159    2.189840
C       2.173747   -0.877505    0.877641
H       1.084240    1.626090   -0.276623
H      -0.601535    1.651376   -0.850572
H      -0.247881    1.837623    0.888251
H       0.531646   -0.052442    2.048204
H      -0.550255   -2.408849    1.851915
H       0.571993   -3.790155   -0.132459
H       0.216077   -2.237701   -0.955361
H       3.032167   -2.709548   -0.219886
H       1.983481   -3.461352    2.359028
H       2.814106   -0.077315    0.510104
