23

C      -0.708977    1.236919   -0.099699
C       0.158667   -0.016606   -0.011456
C       1.315090   -0.054057   -1.028939
O       2.340886   -0.862433   -0.455593
C       1.929203   -1.317326    0.843481
C       3.199521   -1.530261    1.653889
O       4.033269   -2.493972    1.036128
C       0.894938   -0.285818    1.328814
C       1.506270    0.965049    1.972933
H      -0.120338    2.149655    0.034106
H      -1.196096    1.301243   -1.078638
H      -1.498186    1.229197    0.659203
H      -0.480755   -0.888376   -0.200056
H       1.005382   -0.475468   -1.993626
H       1.716515    0.952148   -1.217156
H       1.436868   -2.298343    0.736452
H       3.726228   -0.572992    1.778316
H       2.951199   -1.915055    2.649347
H       4.126233   -2.209586    0.119195
H       0.211004   -0.753293    2.045644
H       2.219980    1.462178    1.308092
H       0.728803    1.689386    2.231798
H       2.034771    0.713047    2.896880
