20

C      -0.029366    1.521699    0.003754
C      -0.009652   -0.011461    0.030105
C       0.762324   -0.549599    1.240933
C      -1.436522   -0.556048   -0.003224
O      -1.390764   -1.966760   -0.107759
C      -2.675764   -2.552121   -0.111508
C      -2.566006   -4.000953   -0.225061
C      -2.504585   -5.196519   -0.317903
H       0.988676    1.922836   -0.005031
H      -0.547982    1.905298   -0.881471
H      -0.534656    1.925350    0.889396
H       0.485437   -0.370057   -0.882096
H       0.747367   -1.641624    1.256562
H       1.804969   -0.216627    1.220342
H       0.316937   -0.190873    2.177173
H      -1.978421   -0.258594    0.912998
H      -1.989455   -0.131295   -0.858772
H      -3.222109   -2.293473    0.812346
H      -3.277395   -2.160142   -0.950178
H      -2.442917   -6.253431   -0.400393
