19

C       0.066455    1.487118    0.052172
C       0.023818   -0.006577    0.000087
C      -0.104965   -0.797932   -1.074404
C      -0.056499   -2.248666   -0.731101
C       1.248644   -2.730882   -0.123729
C       0.119001   -2.289325    0.774246
C       0.119018   -0.852747    1.234684
C       0.691150   -0.409312    2.515495
O      -0.724144   -0.504174    2.351515
H       1.058921    1.855789    0.341170
H      -0.182162    1.925168   -0.917790
H      -0.644191    1.863884    0.796298
H      -0.195131   -0.441233   -2.094777
H      -0.680903   -2.957090   -1.263619
H       1.457540   -3.795632   -0.155083
H       2.120248   -2.092430   -0.226299
H      -0.383163   -3.018421    1.397968
H       1.140020   -1.148780    3.178290
H       1.083023    0.601687    2.622335
