25

C       0.344471    1.678463    0.019493
C      -0.146647    0.233526   -0.129494
C       0.519612   -0.483068   -1.287814
C       1.846500   -1.190764   -1.127675
C       0.597821   -1.986759   -1.425136
C       0.021507   -2.989023   -0.435475
C       0.408718   -4.419583   -0.832873
O       0.487578   -2.676548    0.873707
C      -0.278342   -3.225700    1.920455
H       1.423513    1.709065    0.204282
H       0.149037    2.261008   -0.888174
H      -0.154457    2.184287    0.852450
H       0.036731   -0.320620    0.794113
H      -1.235074    0.235997   -0.281212
H       0.390692    0.034588   -2.237537
H       2.600750   -1.090772   -1.900794
H       2.236839   -1.273099   -0.119762
H       0.504398   -2.348495   -2.446180
H      -1.079760   -2.906517   -0.442791
H       0.019617   -4.659212   -1.827524
H       1.497970   -4.521402   -0.852190
H       0.003195   -5.156482   -0.133916
H       0.134431   -2.839794    2.856090
H      -1.335990   -2.927266    1.850287
H      -0.232080   -4.323837    1.949307
