16

N      -1.202035    0.944913   -0.650243
C      -0.947239   -0.289199   -0.649472
O      -1.181031   -1.018207    0.466572
C      -0.988550   -2.424132    0.392920
C      -2.317198   -3.145148    0.210307
O      -2.855566   -2.896181   -1.080921
C      -3.824092   -1.957310   -1.191236
N      -4.254325   -1.639471   -2.332218
H      -0.959044    1.347497   -1.552811
H      -0.533368   -0.878670   -1.477446
H      -0.308825   -2.683735   -0.428175
H      -0.528468   -2.735803    1.336459
H      -2.162339   -4.226127    0.291332
H      -3.019462   -2.834488    0.993847
H      -4.154335   -1.554887   -0.225165
H      -4.984363   -0.936056   -2.242777
