15

N      -0.116838   -1.137120    0.089244
C      -0.048165    0.014349    0.012293
C       0.018627    1.454941   -0.085906
N      -0.794459    2.218208    0.990092
C      -1.321512    3.054646   -0.103148
C      -0.165037    3.554913   -1.016761
C       1.229121    3.363468   -0.532450
C       1.381131    2.123637   -0.059309
C      -0.795342    2.198900   -1.210163
H      -1.551572    1.595943    1.272721
H      -2.235208    3.623917    0.011567
H      -0.428845    4.356197   -1.696302
H       1.971457    4.150895   -0.507209
H       2.236698    1.701024    0.448082
H      -1.206363    1.790479   -2.124991
