20

O       0.031935    1.355458   -0.319509
C       0.005496    0.013430    0.153014
C      -1.386360   -0.533550    0.186414
C      -1.974665   -1.891145   -0.032516
C      -2.969843   -1.689116    1.118392
C      -2.574856   -0.176061    1.130445
C      -3.521000    0.627986    0.236830
C      -3.376663   -0.115493   -1.116012
N      -2.083581   -0.840936   -1.063336
H      -0.316290    1.332390   -1.217884
H       0.637506   -0.643463   -0.462963
H       0.433990    0.041448    1.160502
H      -1.502953   -2.823684   -0.325657
H      -4.023107   -1.933507    0.940589
H      -2.632627   -2.209968    2.017928
H      -2.355605    0.264248    2.102608
H      -4.552011    0.636396    0.604408
H      -3.178364    1.664835    0.153937
H      -4.190212   -0.826703   -1.289440
H      -3.356846    0.569207   -1.968574
