18

C      -0.046764    1.484188   -0.037852
N       0.009783    0.036524   -0.142723
C      -1.229289   -0.709159    0.036988
C      -1.129955   -2.079816   -0.627322
C       0.102223   -2.820152   -0.170661
N       0.101801   -4.088248   -0.057110
N       1.184911   -1.979107    0.060548
C       1.225901   -0.578430    0.008916
O       2.292027    0.001778    0.098588
H       0.956805    1.878093   -0.189765
H      -0.721960    1.887931   -0.799711
H      -0.406604    1.804522    0.949778
H      -1.470739   -0.816046    1.106629
H      -2.039662   -0.132078   -0.418160
H      -2.005496   -2.693977   -0.415040
H      -1.064924   -1.947523   -1.714309
H       1.017143   -4.441990    0.230801
H       2.093795   -2.384661    0.232160
