15

O      -0.067727    1.454246   -0.004935
C       0.040655    0.037071   -0.016446
C      -1.383791   -0.516041    0.108152
C      -1.467019   -1.997617   -0.206067
O      -2.089677   -2.788913    0.453143
C      -0.706140   -2.455082   -1.479003
O      -0.998829   -3.489660   -2.034305
C       0.379115   -1.566313   -1.934622
C       0.720866   -0.453645   -1.271233
H       0.798561    1.829745    0.182819
H       0.631191   -0.304479    0.850555
H      -1.806428   -0.323000    1.095690
H      -1.992936    0.017650   -0.634606
H       0.912550   -1.889254   -2.823522
H       1.548042    0.158265   -1.626679
