21

C       0.020235    1.552314   -0.097441
C       1.425606    2.136806    0.195905
C       2.321926    1.069170    0.855754
O       1.574336    0.377736    1.859156
C       0.515001   -0.430567    1.353032
C       0.007131    0.015861   -0.032264
C       0.793340   -0.660629   -1.175207
C       2.291832   -0.589138   -1.052187
C       2.963746    0.140325   -0.162901
H      -0.689951    1.927978    0.647347
H      -0.346811    1.889476   -1.072416
H       1.906588    2.495403   -0.719250
H       1.336581    2.994837    0.869624
H       3.119428    1.563810    1.416634
H       0.832427   -1.483916    1.317257
H      -0.293362   -0.355026    2.090234
H      -1.032676   -0.320070   -0.121435
H       0.506315   -1.721155   -1.218825
H       0.477730   -0.242031   -2.143333
H       2.849847   -1.215847   -1.745899
H       4.049498    0.090316   -0.152301
