20

C      -0.027776    1.540046   -0.040431
C      -0.003686    0.017902    0.041228
O       0.749224   -0.450706    1.157861
C      -1.417722   -0.580679    0.067934
O      -2.089414   -0.157618   -1.103219
C      -1.378635   -2.103105    0.138372
O      -2.744964   -2.535820    0.086626
C      -2.959472   -3.864663    0.017193
N      -4.138361   -4.308177   -0.051025
H       0.991801    1.932067   -0.084777
H      -0.579587    1.867608   -0.923796
H      -0.524338    1.965738    0.841476
H       0.511842   -0.383505   -0.839906
H       0.465393    0.047748    1.932271
H      -1.939254   -0.212234    0.970133
H      -2.916115   -0.653447   -1.142768
H      -0.827525   -2.502658   -0.722996
H      -0.898077   -2.436711    1.062772
H      -2.035000   -4.457791    0.029100
H      -4.125654   -5.324919   -0.095277
