23

O      -0.023258    1.434403    0.113597
C       0.046583    0.019622    0.018749
C      -1.376189   -0.523587    0.033435
C      -1.432044   -2.050735   -0.053975
C      -2.862765   -2.600783   -0.044319
C      -2.930883   -4.126926   -0.060416
O      -2.274861   -4.712691    1.074767
C      -4.360798   -4.668649   -0.131810
O      -4.371549   -6.078019   -0.078100
H       0.873322    1.781500    0.102614
H       0.554087   -0.293482   -0.908703
H       0.616224   -0.409427    0.859782
H      -1.868236   -0.178012    0.951329
H      -1.927560   -0.073532   -0.801609
H      -0.926470   -2.387584   -0.969309
H      -0.875984   -2.496379    0.779395
H      -3.396840   -2.230630    0.844361
H      -3.416948   -2.214927   -0.910167
H      -2.372420   -4.517868   -0.919840
H      -2.649221   -4.306569    1.866305
H      -4.952144   -4.228085    0.693341
H      -4.838341   -4.367539   -1.070952
H      -3.694527   -6.309832    0.571570
