17

O      -0.060989    1.377039    0.050920
C       0.036785   -0.043770   -0.031366
C       0.748859   -0.590542    1.232006
O       0.600907   -1.993706    1.332908
C      -0.754436   -2.358662    1.351869
O      -1.432551   -1.978444    0.183706
C      -1.413324   -0.575658    0.005298
C       0.730844   -0.459991   -1.248900
C       1.331522   -0.742746   -2.250953
H       0.708357    1.752647   -0.389113
H       1.819728   -0.376516    1.203716
H       0.303875   -0.079906    2.100927
H      -0.792534   -3.447721    1.404171
H      -1.249270   -1.908412    2.234350
H      -1.930833   -0.061554    0.831120
H      -1.930158   -0.354011   -0.929600
H       1.851797   -1.011810   -3.137215
