16

C       0.027904    1.538627   -0.051488
C       0.053652    0.009290   -0.019728
C       0.649199   -0.538218    1.290365
C       0.731092   -2.028134    1.303334
N       0.059394   -2.767013    2.147570
O       0.420694   -4.079108    1.800530
C       1.271179   -3.965863    0.781876
N       1.513874   -2.749461    0.416611
H       1.037691    1.953865    0.039279
H      -0.399907    1.905253   -0.989299
H      -0.572595    1.944368    0.770138
H      -0.962496   -0.384508   -0.140924
H       0.639628   -0.375941   -0.861222
H       1.661346   -0.136714    1.423032
H       0.052499   -0.215821    2.148800
H       1.669346   -4.881552    0.369199
