19

C      -0.590472    1.138466   -0.072329
C      -0.003993   -0.244136    0.157103
C       1.274658   -0.675026   -0.652684
C       1.812573   -1.373843    0.639586
C       0.790985   -0.558778    1.429568
C       1.010001    0.283740    2.606064
O       0.232923   -0.924670    2.671622
C       1.034430   -1.555352   -1.844083
O       1.401000   -1.326084   -2.967802
H       0.172308    1.916045    0.038101
H      -1.014420    1.224063   -1.077994
H      -1.392248    1.344132    0.644935
H      -0.778934   -1.012998    0.037023
H       1.878270    0.185550   -0.948309
H       1.566220   -2.441185    0.654408
H       2.871985   -1.247986    0.869406
H       1.967955    0.250141    3.123695
H       0.444922    1.205843    2.732986
H       0.455780   -2.481399   -1.605581
