17

C       0.042528    0.540263   -0.625028
O      -0.170791    0.577875    0.787744
C       0.511917   -0.353543    1.490030
C       0.751277   -1.702560    1.354477
O       0.324198   -2.473465    0.323695
C       0.778250   -3.821191    0.338540
N       1.485899   -2.170357    2.405840
C       1.689654   -1.131642    3.191114
N       1.125733   -0.004781    2.677233
H      -0.246366   -0.429710   -1.039807
H      -0.582921    1.328137   -1.048365
H       1.095336    0.734662   -0.864699
H       0.432983   -4.347387    1.234424
H       0.357112   -4.287396   -0.554037
H       1.872171   -3.874427    0.308189
H       2.220689   -1.141994    4.129745
H       1.122789    0.921532    3.070262
