18

C      -0.003923    1.616626    0.085715
C      -0.018262    0.088879   -0.017149
C      -1.455676   -0.481723    0.034364
C      -2.137374   -0.176026    1.289181
N      -2.663438    0.071070    2.287851
C       0.693081   -0.440851   -1.304114
N       0.156868   -0.028916   -2.599085
C       2.120966   -0.082029   -1.247272
N       3.233802    0.218096   -1.171321
H       1.020364    1.998211    0.070441
H      -0.555902    2.079333   -0.740365
H      -0.473728    1.942490    1.017024
H       0.532787   -0.325598    0.835138
H      -2.054579   -0.073886   -0.788821
H      -1.439653   -1.571382   -0.089608
H       0.648624   -1.537788   -1.278314
H      -0.779359   -0.391629   -2.736633
H       0.124135    0.981362   -2.682568
