22

C      -0.478137    1.172132    0.074161
N       0.115195   -0.154456    0.134589
C       1.513233   -0.285400   -0.258302
C       1.108461   -0.480976    1.163385
C       1.552101    0.474397    2.254707
C       0.614691    0.481948    3.460480
C       0.613535   -0.766264    4.376042
O       1.024754    0.011477    5.518166
C       1.101433    1.216096    4.730458
H       0.210142    2.000460    0.305545
H      -0.860697    1.334095   -0.938808
H      -1.326183    1.226006    0.764903
H       1.759169   -1.131269   -0.895614
H       2.062960    0.628007   -0.488815
H       1.007552   -1.509723    1.511545
H       2.556000    0.173749    2.585285
H       1.655681    1.492192    1.862526
H      -0.391052    0.781129    3.154800
H      -0.355953   -1.252401    4.537540
H       1.354812   -1.535124    4.116240
H       2.127636    1.605809    4.674385
H       0.445087    2.004282    5.119320
