17

N       0.128727    1.288298    0.451994
C       0.907218    2.367285    0.073655
C       1.286533    2.859939   -1.127469
C       1.070629    2.477420   -2.489687
C       1.212351    1.311603   -3.181539
N       1.734652    0.107963   -2.861002
C       1.512143   -0.719520   -1.899498
C       0.504001   -0.812554   -0.880007
C      -0.103967    0.017839    0.006373
H      -0.327025    1.457072    1.334957
H       1.135146    2.984780    0.937792
H       1.760150    3.835837   -1.024052
H       0.912766    3.336556   -3.140854
H       1.071088    1.406815   -4.259514
H       2.121601   -1.628297   -1.959296
H       0.175368   -1.842609   -0.747290
H      -0.874524   -0.446452    0.616327
