16

O      -1.047610   -0.023465   -0.085387
C       0.278083   -0.457784   -0.173946
C       1.081126    0.509439   -1.026164
O       0.563926    1.495067   -1.496280
C       0.932496   -0.563667    1.225933
C       0.663703    0.538556    2.198747
N       0.034777   -0.773599    2.374965
C       2.184797   -1.273962    1.226972
C       3.232914   -1.859345    1.157665
H      -1.081509    0.810058   -0.585689
H       0.327146   -1.455441   -0.638542
H       2.151285    0.275772   -1.171410
H       1.421053    0.792984    2.932862
H       0.048634    1.362038    1.845954
H      -0.921357   -0.721753    2.024346
H       4.158043   -2.380359    1.125387
