18

N      -0.102678    1.315385   -0.164183
C      -0.003743    0.072391    0.043025
O       1.205310   -0.545834    0.214008
C       1.280192   -1.819806    0.881851
C      -0.004046   -2.642733    0.776950
C      -0.398706   -2.883094   -0.689799
O      -1.144789   -1.724751   -1.083207
C      -1.220385   -0.835520    0.036642
C      -1.173458   -1.763205    1.253174
H       0.821234    1.753504   -0.132437
H       2.125427   -2.341431    0.422786
H       1.524977   -1.636842    1.936933
H       0.119150   -3.572269    1.338392
H       0.471896   -3.000585   -1.345995
H      -1.033940   -3.771443   -0.797168
H      -2.114649   -0.222862   -0.067259
H      -2.105243   -2.327027    1.347981
H      -0.973047   -1.242373    2.193364
