21

C       0.014218    1.581357   -0.046557
C      -0.004662    0.049419    0.035862
C       0.758497   -0.449776    1.264338
O       2.112237   -0.031361    1.149992
C      -1.430996   -0.540789    0.037081
O      -2.194651   -0.110185    1.152009
C      -2.178955   -0.234727   -1.254367
C      -3.639764   -0.322678   -1.330109
O      -2.984314    0.952075   -1.216131
H       1.044696    1.939614   -0.013286
H      -0.454574    1.945856   -0.964697
H      -0.520940    2.020440    0.802467
H       0.511010   -0.358138   -0.845947
H       0.285699   -0.047180    2.171495
H       0.692208   -1.549242    1.317900
H       2.554063   -0.215575    1.983443
H      -1.348670   -1.633201    0.126871
H      -2.592249    0.731171    0.886325
H      -1.604606   -0.356430   -2.172956
H      -4.121222   -0.506102   -2.288454
H      -4.195646   -0.630380   -0.447870
