17

O      -0.045167    1.462654    0.050414
C       0.015963    0.053257   -0.086777
C      -1.382183   -0.498668    0.164633
C      -1.452151   -2.017071    0.079283
C      -2.869717   -2.663925    0.092784
C      -2.506356   -3.234589   -1.300280
O      -3.026669   -3.956009   -2.106761
N      -1.289930   -2.592556   -1.268607
H       0.829341    1.822674   -0.123478
H       0.352816   -0.234702   -1.096547
H       0.725370   -0.389742    0.632419
H      -1.706900   -0.181208    1.162785
H      -2.075064   -0.056251   -0.560059
H      -0.772037   -2.473707    0.810051
H      -3.036681   -3.425834    0.855805
H      -3.701419   -1.956684    0.088800
H      -0.490352   -2.668805   -1.880239
