15

N       0.056177   -3.645936   -0.329320
C       0.038679   -2.493178   -0.184723
C       0.018262   -1.139046   -0.014850
C      -0.003374    0.059939    0.134358
C      -0.002751    1.504211    0.318082
C       1.386426    2.117946    0.196490
C       1.939623    2.473031   -1.157595
C       1.524646    3.564341   -0.200671
H      -0.672771    1.956923   -0.424757
H      -0.435336    1.736638    1.300501
H       2.095833    1.741854    0.926872
H       2.996833    2.315347   -1.336753
H       1.312172    2.294023   -2.024562
H       0.619231    4.118712   -0.425667
H       2.296469    4.154528    0.279938
