20

C       0.603512    1.466734   -0.095304
C       0.067971    0.031571    0.011729
C       0.357890   -0.865497   -1.211851
C       1.437894   -1.853467   -0.730277
C       2.851933   -1.535829   -1.208913
O       3.804875   -2.404406   -0.638346
O       1.431732   -1.782157    0.715207
C       0.712233   -0.712284    1.168933
N       0.602808   -0.389308    2.384176
H       1.678643    1.478409   -0.303478
H       0.097134    2.006731   -0.901209
H       0.435814    1.997541    0.844658
H      -1.006287    0.083772    0.207572
H      -0.538263   -1.406680   -1.523122
H       0.705282   -0.287775   -2.073345
H       1.206551   -2.892175   -0.984264
H       2.905280   -1.668767   -2.295187
H       3.080843   -0.478443   -0.991685
H       3.662450   -2.375945    0.315113
H       1.133790   -1.025622    2.980647
