15

C       0.181331    1.451234    0.123062
N      -0.210313    0.074029   -0.137691
C       0.491439   -0.667998   -1.061530
C       0.694994   -2.036009   -1.131957
N       0.252611   -2.970775   -0.167647
N       1.411743   -2.308664   -2.256410
N       1.678758   -1.208569   -2.890915
N       1.106562   -0.195054   -2.169159
H       1.242024    1.565478    0.394305
H      -0.018136    2.074222   -0.756204
H      -0.430848    1.842595    0.938024
H      -0.376476   -0.481194    0.692311
H      -0.568740   -3.476314   -0.489055
H       0.972502   -3.666501    0.001293
H       1.191802    0.751506   -2.498562
