19

O      -0.110598    1.379588   -0.337030
C      -0.020646   -0.033911   -0.243027
C      -1.371721   -0.560854    0.233255
C      -2.464947   -0.331679   -0.824633
O      -2.419685   -1.489364   -1.654311
C      -2.268649   -2.605927   -0.780743
C      -1.359484   -2.103531    0.384120
C      -3.565641   -3.100393   -0.302852
C      -4.628093   -3.501450    0.091873
H       0.696767    1.709199   -0.741654
H       0.217107   -0.487700   -1.218525
H       0.765738   -0.336535    0.466915
H      -1.621770   -0.061231    1.173205
H      -3.455185   -0.230954   -0.357479
H      -2.274951    0.541527   -1.450830
H      -1.782625   -3.393679   -1.364964
H      -0.348126   -2.505619    0.273642
H      -1.741846   -2.430262    1.351583
H      -5.568056   -3.861351    0.430833
