24

C       0.154476    0.853731    1.500453
C      -0.461185   -0.528763    1.759333
C      -1.087884   -0.617096    3.157785
C      -1.490967   -0.845800    0.690965
N      -1.002171   -1.254235   -0.635827
C      -1.804374   -2.205014    0.157027
C      -1.072053   -3.451873    0.611699
C      -3.237970   -2.443121   -0.289074
O      -3.337897   -3.168038   -1.508089
H       0.931617    1.083728    2.236618
H       0.602191    0.894623    0.503387
H      -0.606114    1.641706    1.564135
H       0.343096   -1.269167    1.688177
H      -1.492500   -1.615290    3.354385
H      -0.349367   -0.393209    3.934319
H      -1.908765    0.102039    3.266573
H      -2.337412   -0.154674    0.707716
H      -1.567273   -0.853879   -1.381152
H      -1.060998   -4.203354   -0.187143
H      -0.030977   -3.236947    0.854917
H      -1.553510   -3.897739    1.489632
H      -3.801248   -2.941849    0.516309
H      -3.728000   -1.483038   -0.483880
H      -3.020575   -4.062746   -1.352463
