19

C      -0.011300    1.570870   -0.003720
C       1.503536    1.829645    0.001970
C       1.937896    0.964820   -1.194624
C       1.335074   -0.369863   -0.728767
O       2.227688   -0.840455    0.297885
C       1.839460   -0.073633    1.421349
C       0.336873   -0.366626    1.484973
C      -0.005371    0.024418    0.033732
O       2.093460    1.311416    1.213260
H      -0.528099    2.012042    0.851445
H      -0.457372    1.972266   -0.919451
H       1.796215    2.879694   -0.046192
H       1.493331    1.341565   -2.121591
H       3.018887    0.883173   -1.314949
H       1.234569   -1.147967   -1.485657
H       2.441123   -0.373052    2.280101
H       0.186077   -1.429283    1.691114
H      -0.199905    0.226405    2.227838
H      -0.899622   -0.449654   -0.369606
