16

O      -0.008367   -0.075649    0.064508
C       0.006787    1.131164    0.047068
N      -1.076086    1.991260   -0.103411
C      -0.718642    3.401381    0.036186
C       0.786929    3.305742    0.020525
N       1.734247    4.137266   -0.128514
C       2.976820    3.326667   -0.067052
C       2.547962    1.813314   -0.032432
N       1.113621    1.968877    0.166089
H      -1.994158    1.643270    0.116415
H      -1.092947    4.016070   -0.788077
H      -1.072753    3.839587    0.978920
H       3.611355    3.554187   -0.927984
H       3.540242    3.600415    0.831796
H       2.757907    1.289515   -0.971030
H       3.009368    1.254130    0.784322
