12

N      -0.103339    1.249286   -0.405408
C       0.000095    0.036938   -0.051481
N      -1.117634   -0.682266    0.341397
C      -1.041446   -1.987725    0.727977
N       0.013677   -2.711839    0.785265
O       1.218093   -2.063232    0.400458
C       1.269218   -0.758749   -0.005537
N       2.357165   -0.210331   -0.341658
H       0.823417    1.597136   -0.655325
H      -2.001102   -0.194278    0.329531
H      -1.966161   -2.472868    1.019501
H       3.139396   -0.861571   -0.264269
