23

C      -0.116791    1.268590   -0.302122
C       0.248292   -0.175167   -0.034108
C       1.681945   -0.617208    0.140424
C       0.722926   -0.694590    1.308567
C       0.934303    0.265018    2.469212
C       0.180075   -2.031936    1.752937
O      -1.102261   -1.952221    2.337461
C       0.382028   -3.300158    0.983766
C       1.100454   -3.095493    2.304536
H       0.562287    1.966702    0.195176
H      -0.072239    1.483278   -1.375786
H      -1.134083    1.492622    0.037761
H      -0.378428   -0.885000   -0.568517
H       2.018479   -1.523911   -0.349740
H       2.442387    0.156875    0.189735
H       1.379692    1.209018    2.147743
H      -0.012374    0.507586    2.966525
H       1.604923   -0.177696    3.214926
H      -1.004850   -1.549982    3.206949
H      -0.461294   -3.980742    0.980383
H       0.964274   -3.295240    0.070140
H       2.169662   -2.913285    2.277923
H       0.751071   -3.667260    3.157216
