15

N      -0.189770    1.525154   -0.138509
C       0.041765    0.084828    0.006089
C      -1.309060   -0.707828    0.021434
O      -1.479264   -1.385295   -1.261969
C      -0.256139   -1.383271   -1.837362
C       0.396599   -1.894247   -2.907111
O       1.681645   -1.433278   -2.868712
N       1.868219   -0.610465   -1.753884
C       0.703875   -0.600956   -1.165430
H       0.704287    2.009103   -0.136445
H      -0.602395    1.712962   -1.049701
H       0.578412   -0.071050    0.945344
H      -1.306969   -1.474540    0.802260
H      -2.159482   -0.039799    0.166045
H       0.151579   -2.542613   -3.730395
