18

N       0.029076   -1.165744   -0.070375
C       0.003062   -0.012023   -0.013328
C      -0.009452    1.444358    0.094070
C      -0.945369    2.098498    1.144356
C      -1.148197    3.118438    0.003812
C      -0.059911    4.189001   -0.031765
C       1.285539    3.576167    0.431185
C       1.396264    2.069160    0.089991
O      -0.771604    2.086928   -0.965275
H      -1.834209    1.492431    1.316861
H      -0.512273    2.426081    2.090105
H      -2.153469    3.500986   -0.183512
H       0.004127    4.554757   -1.061925
H      -0.328020    5.042265    0.601389
H       2.128991    4.121892    0.000118
H       1.373110    3.695926    1.515906
H       2.053869    1.558378    0.800622
H       1.807440    1.913448   -0.912012
