17

C      -0.302390    1.545932    0.007149
C       0.012075    0.063287   -0.007322
C       1.139789   -0.477589   -0.943407
C       1.728626   -1.219095    0.287331
C       2.908684   -0.590008    1.059749
C       1.813461    0.252535    1.759128
O       1.796753    1.222908    2.460296
N       0.754202   -0.501736    1.185225
H       0.600742    2.152260    0.115260
H      -0.795616    1.823542   -0.930488
H      -0.973721    1.795255    0.833885
H      -0.911782   -0.511743   -0.126476
H       0.818337   -1.103575   -1.778012
H       1.792677    0.313676   -1.325128
H       1.662205   -2.308468    0.273845
H       3.457930   -1.272806    1.713071
H       3.621310    0.005475    0.484443
