19

C      -0.381046    0.985066   -0.413873
C       0.894412    1.244938    0.346729
C       0.468149   -0.172026    0.044904
C       0.013589   -1.060208    1.159088
O      -0.999174   -0.536031    2.043438
C      -1.328985   -1.638358    1.224108
C      -2.470423   -1.679967    0.214408
O      -2.837137   -2.999713    0.679721
C      -1.846039   -2.979681    1.731953
H      -1.309815    1.157721    0.117272
H      -0.409959    1.208619   -1.474189
H       1.747448    1.648795   -0.186544
H       0.797497    1.583399    1.372407
H       1.040387   -0.697489   -0.715350
H       0.811705   -1.590302    1.683902
H      -3.260300   -0.939180    0.393281
H      -2.193905   -1.674332   -0.846008
H      -1.160250   -3.833509    1.673641
H      -2.296181   -2.936905    2.732193
