15

N      -0.198164    1.287360    0.011066
C      -0.097031    0.032423    0.005865
O      -1.217460   -0.724592    0.011470
C      -1.032003   -2.137726    0.005070
C      -2.391163   -2.756975    0.012978
N      -2.665777   -4.048062    0.010428
C      -4.028977   -4.059594    0.020529
N      -4.604843   -2.868857    0.029051
N      -3.531884   -2.042857    0.024007
H       0.724598    1.716374    0.005763
H       0.829338   -0.557090   -0.003079
H      -0.479414   -2.457309   -0.887995
H      -0.466210   -2.463618    0.887524
H      -4.609327   -4.969857    0.021609
H      -3.637408   -1.040976    0.028356
