20

C       0.023533    1.647542   -0.136513
C       0.082405    0.145955    0.073525
N       1.114827   -0.661347   -0.755691
C       2.146669   -0.218780    0.298640
C       0.920254   -0.565056    1.178195
C       0.809651   -1.792697    0.240110
C       0.778215   -0.520394    2.663840
C       0.247298    0.650019    3.377395
O      -0.562185   -0.507263    3.174017
H       0.947396    2.173036    0.115660
H      -0.205800    1.857247   -1.186729
H      -0.782561    2.075490    0.468378
H      -0.919548   -0.274973   -0.060433
H       3.014238   -0.882075    0.354071
H       2.464248    0.820850    0.214250
H      -0.175220   -2.246786    0.102923
H       1.598140   -2.548351    0.290440
H       1.452285   -1.180609    3.214068
H       0.553358    0.833980    4.406445
H      -0.051121    1.534026    2.817028
