17

C       0.407552    1.360022    0.317064
C       0.080973   -0.064636   -0.061748
C       0.827440   -0.765722   -1.167579
N       1.011313   -1.135049    0.220930
C       2.149149   -1.084106    0.987227
O       2.193230   -0.569498    2.090581
C       3.370304   -1.818312    0.435653
O       4.409609   -1.794353    1.368376
H       1.439551    1.615427    0.060050
H      -0.260044    2.048227   -0.210655
H       0.286119    1.511090    1.392672
H      -0.959615   -0.351717    0.081514
H       0.325247   -1.497047   -1.795293
H       1.626763   -0.211850   -1.655865
H       3.075062   -2.848448    0.183509
H       3.675171   -1.339264   -0.509381
H       4.046930   -1.305300    2.125831
