17

O      -0.636762    0.744711    0.758692
C       0.195086    0.969461   -0.083222
C       1.216869    2.051086    0.032237
O       2.396782    1.872522   -0.765105
C       1.514953    2.928884   -1.124271
C       0.831707    2.840900   -2.497546
C       1.236644    4.139459   -3.151021
C       1.881228    4.952854   -2.315975
C       2.034562    4.361099   -0.937332
H       0.268046    0.379596   -1.023335
H       1.371676    2.437031    1.039327
H       1.181392    1.954250   -3.038274
H      -0.259808    2.755213   -2.415225
H       1.001677    4.361414   -4.185395
H       2.253211    5.939660   -2.565642
H       1.448986    4.913667   -0.190792
H       3.070142    4.340275   -0.579500
