14

C       0.103725    1.545908    0.086314
C       1.276023    0.638299   -0.027254
C       1.997626    0.294475    1.253155
O       1.428824    0.885367    2.430910
C       1.067632   -0.463212    2.105418
C      -0.248430   -0.590500    1.353109
N      -0.100705    0.092984    0.046719
H      -0.017463    2.067038    1.030435
H      -0.260897    2.070723   -0.792844
H       1.814319    0.509034   -0.961757
H       3.075435    0.161858    1.263268
H       1.377004   -1.219265    2.824622
H      -0.456789   -1.649638    1.161742
H      -1.092509   -0.177405    1.915012
