18

C      -0.035365    1.466432   -0.031773
C       0.024209   -0.043438    0.032378
C       1.336874   -0.795019   -0.152036
O       2.542641   -0.076598   -0.209323
C       0.681788   -0.754912    1.201311
O       1.343377    0.010420    2.173759
C       0.060277   -1.980156    1.824886
O       1.019905   -2.751616    2.518765
H       0.776420    1.921259    0.539409
H       0.019234    1.829399   -1.064905
H      -0.975438    1.830275    0.394082
H      -0.838999   -0.551497   -0.392240
H       1.341667   -1.725048   -0.717790
H       2.512024    0.531324   -0.955211
H       2.181513    0.282293    1.771419
H      -0.759619   -1.664947    2.491931
H      -0.372953   -2.618457    1.047656
H       1.512930   -2.118938    3.055683
