19

C       0.246754    1.467161    0.057831
O       1.288981    0.490344    0.061197
C      -0.067294    0.032866    0.029161
C      -0.546626   -0.708871    1.244118
C      -2.034597   -1.137278    1.246020
O      -1.684130   -2.537608    1.253592
C      -0.290159   -2.217857    1.267557
C       0.718956   -3.032628    0.528232
C       0.693542   -3.015678    2.052864
H       0.126461    2.024745    0.986172
H       0.161906    2.058831   -0.852469
H      -0.361949   -0.405437   -0.926050
H      -0.221779   -0.188941    2.148651
H      -2.606334   -0.852225    2.135954
H      -2.603993   -0.864019    0.348817
H       0.359925   -3.929022    0.033998
H       1.526899   -2.517811    0.018856
H       1.486180   -2.493502    2.579186
H       0.315648   -3.900386    2.554224
