20

C      -0.024935    1.422490    0.032828
N      -0.010096   -0.031403    0.026455
C       0.548103   -0.612510   -0.951489
N       1.178157   -0.068012   -2.071373
C       1.635909   -1.112167   -2.866657
N       1.401490   -2.288143   -2.437009
C       0.673863   -2.130302   -1.153044
C       1.490456   -2.759218   -0.016236
C      -0.713706   -2.776204   -1.263152
H       0.990103    1.850851    0.041662
H      -0.552771    1.839508   -0.839791
H      -0.539123    1.779901    0.928241
H       1.282251    0.911854   -2.269265
H       2.157824   -0.886582   -3.791888
H       2.492663   -2.323735    0.030661
H       0.989642   -2.578287    0.938507
H       1.591423   -3.835574   -0.178968
H      -0.613729   -3.852664   -1.425810
H      -1.276333   -2.595191   -0.343498
H      -1.274934   -2.353169   -2.101200
