21

C       0.022975    1.475138   -0.061950
C      -0.164897   -0.005561   -0.341270
O       1.064105   -0.526147   -0.825574
C       1.011683   -1.879607   -1.126225
C       0.544659   -2.395889   -2.470491
C       0.474546   -1.416185   -3.629126
O       1.706002   -0.709079   -3.655376
C       2.716931   -1.476776   -3.014482
C       2.015457   -2.447436   -2.079202
H       0.809404    1.627817    0.682661
H       0.310189    2.001713   -0.976219
H      -0.905293    1.912658    0.317501
H      -0.461689   -0.540747    0.576351
H      -0.963016   -0.167139   -1.081674
H       0.752610   -2.511508   -0.273105
H      -0.071343   -3.287247   -2.514287
H       0.311327   -1.974553   -4.566009
H      -0.324261   -0.670955   -3.539951
H       3.312929   -2.043787   -3.747771
H       3.380105   -0.773638   -2.499921
H       2.519972   -3.374577   -1.832576
