17

C       0.321596    0.705642   -0.454443
O      -0.140134   -0.475160    0.168028
C      -1.554566   -0.533234    0.294453
C      -2.248312   -1.005945   -1.017501
C      -2.086329   -2.470778   -0.507814
O      -0.936023   -3.122103   -0.997438
C      -1.920382   -1.892679    0.929372
H       1.411866    0.647258   -0.491979
H      -0.063671    0.814793   -1.478285
H       0.031393    1.597714    0.120654
H      -1.926726    0.383977    0.770797
H      -3.294937   -0.690509   -1.061942
H      -1.757692   -0.766783   -1.964398
H      -2.922429   -3.152288   -0.679694
H      -0.189929   -2.537021   -0.810905
H      -1.155345   -2.352644    1.558922
H      -2.867653   -1.843827    1.472841
