18

C      -0.099526    1.546170    0.027071
C      -0.042878    0.033429    0.049664
C       1.252286   -0.705732   -0.233957
C       0.719685   -0.709531    1.177184
C       1.423701    0.078602    2.274710
C       0.158627   -1.953579    1.657798
N      -0.264706   -2.945879    2.075792
C      -1.276992   -0.634681   -0.472441
O      -2.230157   -0.029648   -0.893278
H       0.866057    2.000500    0.253910
H      -0.410223    1.878283   -0.966782
H      -0.839473    1.922245    0.739118
H       1.203277   -1.629469   -0.800380
H       2.131459   -0.100344   -0.425573
H       1.925574    0.958526    1.870428
H       0.714510    0.403963    3.040766
H       2.178015   -0.550353    2.756032
H      -1.253342   -1.745064   -0.464563
