9

O      -0.109779    0.024460    0.000851
C      -0.023837    1.217227    0.006601
C       1.357674    1.921371   -0.000743
O       2.391498    1.302093   -0.012433
C       1.301645    3.371953    0.007526
C       1.242320    4.580984    0.014518
C       1.172458    5.943790    0.022418
N       1.107992    7.103330    0.029181
H      -0.902182    1.896193    0.017361
