27

C      -0.191994    1.574359    0.096125
C      -0.038157    0.054646   -0.025414
C       0.804396   -0.424133   -1.224519
C       2.258519    0.061173   -1.130866
C       0.708313   -1.956995   -1.356019
C       1.295983   -2.571186   -2.624149
C       2.825889   -2.844742   -2.762541
C       2.489223   -4.187555   -3.461878
C       1.061452   -4.091378   -2.863098
H       0.762935    2.072255    0.289162
H      -0.610498    2.003715   -0.821476
H      -0.865868    1.832953    0.919165
H       0.400906   -0.344060    0.900102
H      -1.036831   -0.394234   -0.102057
H       0.360494    0.012049   -2.133099
H       2.842403   -0.245252   -2.002154
H       2.316903    1.151537   -1.067442
H       2.748976   -0.350406   -0.240047
H       1.176186   -2.427506   -0.478029
H      -0.354053   -2.237002   -1.313546
H       0.946029   -2.009004   -3.499644
H       3.432132   -2.122566   -3.315323
H       3.287776   -3.004434   -1.782515
H       2.479020   -4.085271   -4.551077
H       3.092191   -5.061461   -3.203777
H       0.988853   -4.629432   -1.911555
H       0.216002   -4.385343   -3.490919
