16

O      -0.080499    1.437690    0.028272
C       0.015051    0.020437    0.003703
C      -1.417240   -0.520215   -0.015406
O      -1.410975   -1.910948   -0.277070
C      -0.973605   -2.228093   -1.577186
C       0.292255   -1.482314   -1.961760
C       0.748901   -0.464655   -1.221585
C       0.948688   -1.903193   -3.156668
N       1.451556   -2.277693   -4.130748
H       0.782606    1.802105    0.247897
H       0.525426   -0.352654    0.905881
H      -1.899541   -0.380908    0.953853
H      -1.990103    0.034373   -0.774159
H      -0.795460   -3.307839   -1.595697
H      -1.757271   -2.011941   -2.323875
H       1.655438    0.061602   -1.507673
