20

C      -0.303087    1.567727    0.090563
C       0.040513    0.079537   -0.006074
C       0.687300   -0.394229   -1.322573
C       2.031171    0.095155   -1.801189
O       2.658151    1.272569   -1.372438
C       1.967883   -1.135060   -0.937183
C       2.043078   -1.094771    0.575854
C       2.203361    0.187266    1.316245
N       0.867676   -0.403757    1.131052
H       0.586676    2.195296    0.005850
H      -0.998840    1.849989   -0.706195
H      -0.782112    1.782355    1.050267
H      -0.901127   -0.477899    0.076371
H       0.008951   -0.782897   -2.076834
H       2.226945   -0.124421   -2.852509
H       2.234823    2.007587   -1.828371
H       2.246661   -2.075689   -1.399160
H       2.324206   -2.032837    1.047993
H       2.543928    0.166268    2.348953
H       2.496510    1.060085    0.751285
