17

N      -0.235596    0.140063    1.404348
C      -0.692004   -0.341752    0.333090
O      -0.325072   -1.594106   -0.037998
C      -1.004737   -2.142473   -1.169786
C      -2.394580   -2.618178   -0.735458
O      -3.358767   -1.884217   -0.767200
N      -2.444155   -3.938327   -0.328348
C      -1.701641   -4.502818    0.789145
C      -3.200648   -4.395257    0.811990
H      -0.575318    1.091554    1.528573
H      -1.374621    0.141315   -0.375447
H      -1.120590   -1.395588   -1.962040
H      -0.383113   -2.966026   -1.523824
H      -1.233932   -5.466017    0.606286
H      -1.131405   -3.815910    1.407198
H      -3.652091   -3.630691    1.437906
H      -3.802100   -5.285689    0.656119
