20

C      -1.485709   -0.432481   -0.180024
C       0.002790   -0.162895    0.081353
C       0.461007   -0.837589    1.381351
C       0.827308   -0.615112   -1.137743
C       2.344771   -0.276367   -1.069929
C       3.009214   -0.791194   -2.354795
O       3.494413   -1.884749   -2.438227
C       2.575945    1.159200   -0.918537
N       2.764035    2.296355   -0.830480
H      -1.832077    0.074747   -1.086353
H      -1.676903   -1.505221   -0.301986
H      -2.097149   -0.079868    0.656139
H       0.136384    0.921335    0.191121
H       0.389996   -1.929248    1.304809
H       1.493353   -0.584307    1.641351
H      -0.168427   -0.522314    2.219000
H       0.751235   -1.702084   -1.258907
H       0.411715   -0.160347   -2.044848
H       2.806026   -0.809896   -0.233928
H       2.965178   -0.092103   -3.216716
