18

C      -0.036073   -1.172921    0.280212
C      -0.009719    0.017281    0.117479
C       0.040902    1.460042   -0.100893
C       1.446049    2.005585   -0.195993
C       2.635521    1.405933   -0.927664
C       3.461792    2.292658    0.021917
C       3.162100    3.750983   -0.375864
C       1.767556    3.431657    0.129358
N       2.260087    2.323274    1.026811
H      -0.068167   -2.222602    0.436428
H      -0.506180    1.709206   -1.020737
H      -0.479125    1.975926    0.716229
H       2.734235    0.346252   -0.681411
H       2.740353    1.552729   -2.008175
H       4.443843    1.987258    0.376648
H       3.662973    4.459141    0.289185
H       3.308294    4.050883   -1.419075
H       1.004380    4.124510    0.468142
