17

C      -0.095801    1.454273    0.063133
N      -0.271755    0.025861   -0.131879
C       0.431338   -0.691511   -1.043611
N       0.517458   -1.972263   -1.082774
C       1.372529   -2.270807   -2.235179
C       1.627755   -0.908900   -2.919268
O       1.052615    0.046128   -1.999558
C       2.647110   -2.943191   -1.730493
O       3.764305   -2.627510   -2.051327
H       0.823649    1.705642    0.609472
H      -0.064598    1.952153   -0.906609
H      -0.950329    1.840914    0.623389
H      -0.579072   -0.523278    0.654693
H       0.879883   -2.986633   -2.910241
H       2.692829   -0.697067   -3.033367
H       1.120714   -0.806625   -3.882023
H       2.453677   -3.759650   -1.002762
