14

N      -0.097779   -1.126851    0.079710
C      -0.048701    0.025208    0.012714
C       0.033216    1.466440   -0.110720
O      -0.770216    2.159085    0.945326
C      -1.297132    3.005981   -0.049581
C      -0.172432    3.578870   -0.999848
C       1.219659    3.386467   -0.535366
C       1.385758    2.135742   -0.082026
C      -0.800830    2.219862   -1.203376
H      -2.210122    3.541936    0.174145
H      -0.466806    4.400476   -1.640845
H       1.953662    4.180746   -0.487718
H       2.247336    1.712314    0.413831
H      -1.249571    1.818790   -2.102104
