18

C      -0.047966    1.619661    0.011054
C       0.036358    0.102518    0.017689
C       1.077417   -0.639738   -0.864000
C       2.484926   -0.256627   -0.343727
C       2.227040   -0.264448    1.167320
C       2.662529   -1.526541    0.457560
C       1.150045   -1.801669    0.198051
C       0.727270   -0.650234    1.187373
H       0.937180    2.066285    0.181516
H      -0.423921    1.993314   -0.948128
H      -0.721471    1.984397    0.794859
H      -0.951765   -0.345048   -0.153278
H       0.938970   -0.799343   -1.933133
H       3.238468    0.368554   -0.803952
H       2.784221    0.354760    1.857692
H       3.524500   -2.163944    0.601365
H       0.642504   -2.758384    0.106527
H       0.242281   -0.820225    2.148400
