18

C      -0.260584    1.535975   -0.038164
N      -0.016101    0.105081    0.034093
C      -1.194323   -0.762447    0.301476
C      -0.355291   -1.493489    1.361754
O      -0.492729   -2.455262    2.060909
C       0.726327   -0.473281    1.162183
C       2.216443   -0.687566    1.288866
C       1.500974    0.177808    2.290816
O       1.659831    1.562596    2.241726
H       0.685516    2.071502   -0.131784
H      -0.865239    1.740914   -0.927571
H      -0.788549    1.937543    0.843388
H      -2.051407   -0.237615    0.751055
H      -1.539895   -1.349541   -0.555346
H       2.562565   -1.673656    1.581891
H       2.823209   -0.167309    0.554133
H       1.320663   -0.234977    3.284308
H       2.556686    1.768049    2.527309
