16

C      -0.330453    1.410909    0.043891
O       1.010498    0.906683   -0.086874
C      -0.045012   -0.021578    0.032281
C      -0.119852   -1.076717    1.151516
C      -0.510001   -2.133493    0.089299
O      -1.911211   -2.482534    0.080710
C      -2.468542   -1.723435   -0.898710
N      -1.751043   -0.936427   -1.589338
C      -0.393675   -1.064112   -1.047692
H      -0.547970    1.909668    0.987356
H      -0.742113    1.881375   -0.846610
H       0.850830   -1.265548    1.617530
H      -0.868895   -0.913675    1.929902
H       0.071841   -3.054109    0.057665
H      -3.536429   -1.868442   -1.018765
H       0.352316   -1.187481   -1.835235
