17

N      -0.092971   -1.168159   -0.098768
C      -0.055640   -0.013064   -0.079679
C      -0.007460    1.449484   -0.054892
C      -0.681916    2.068931    1.208538
C       0.206216    3.266841    1.560820
C      -0.344892    4.637316    1.771866
N       0.209507    3.870805    2.900071
C       1.500579    3.010828    0.875087
C       1.407344    2.016545   -0.003806
H      -0.511614    1.799463   -0.966614
H      -1.727258    2.331902    1.033986
H      -0.647680    1.338750    2.023583
H       0.233530    5.511350    1.484486
H      -1.422540    4.762451    1.696862
H      -0.542464    3.476573    3.461206
H       2.383030    3.605786    1.076190
H       2.191742    1.647589   -0.651874
