18

C       0.109614    1.438098    0.192778
C       0.001515   -0.087189    0.011939
C      -1.462389   -0.494780   -0.036007
O      -2.029891   -1.102748    0.835550
C       0.708097   -0.560992   -1.256407
O       0.252636    0.047741   -2.439449
C       2.159199   -0.969547   -1.194988
C       1.071826   -2.006393   -1.408228
H       1.159120    1.750439    0.190934
H      -0.408974    1.970341   -0.612034
H      -0.337500    1.751797    1.139838
H       0.443375   -0.590783    0.877579
H      -1.992339   -0.178243   -0.961373
H       0.623294    0.936025   -2.480113
H       2.773921   -0.716936   -2.051953
H       2.671570   -0.941944   -0.239236
H       0.836855   -2.685381   -0.596021
H       0.973976   -2.426803   -2.401905
