17

N       0.079379    1.347707   -0.158662
C      -0.007136   -0.004472   -0.038738
C      -1.103598   -0.817209   -0.024721
C      -2.486281   -0.413541    0.021283
O      -3.437656   -1.172887    0.043221
C      -0.653208   -2.240521   -0.028692
C       0.148396   -2.677835   -1.203641
N       0.831653   -2.248944    0.026798
C       1.258405   -0.842759    0.023786
H       0.924097    1.798904    0.154210
H      -0.756358    1.902564   -0.063478
H      -2.656097    0.691063    0.055508
H      -1.186673   -2.963560    0.579620
H       0.268300   -3.733761   -1.429751
H       0.165163   -2.015607   -2.067498
H       1.932367   -0.629845   -0.815562
H       1.815442   -0.624392    0.946781
