17

C      -0.077945    1.291176    0.684925
C       0.377844   -0.111050    0.261495
C       0.708766   -0.203773   -1.214404
C       0.220663   -1.341075   -2.036272
O      -0.397195   -0.066465   -2.124523
C       1.946084    0.521070   -1.660120
O       2.761830    0.967419   -0.883477
C       2.258072    0.745759   -3.153187
O       1.969237    0.004811   -4.053780
H       0.719978    2.025165    0.546254
H      -0.946287    1.606326    0.098880
H      -0.360039    1.298435    1.741398
H       1.263384   -0.408816    0.832296
H      -0.410987   -0.838713    0.477284
H       0.764100   -1.652559   -2.922242
H      -0.355564   -2.106356   -1.517501
H       2.893928    1.645997   -3.291356
