16

C      -0.098518    1.680562   -0.094579
C       0.027504    0.167691   -0.106339
C      -1.330385   -0.509514    0.080376
O      -2.261624    0.000782    0.641833
N       0.696886   -0.505406   -1.293188
C       2.080140   -0.054173   -1.317951
C       1.730536   -1.147829   -0.363332
C       1.050677   -0.562285    0.833517
O       1.113047   -0.737301    2.013092
H       0.863318    2.187061    0.002638
H      -0.587052    2.023501   -1.012137
H      -0.728088    1.968128    0.750070
H      -1.380860   -1.533061   -0.345939
H       2.616090   -0.359699   -2.211589
H       2.346508    0.929878   -0.946336
H       2.092326   -2.163350   -0.475483
