18

O      -0.273767    0.101958   -0.044853
C      -0.023319    1.277103    0.024184
C       1.352214    1.883033   -0.130705
C       1.388856    2.940725   -1.246262
C       2.720774    3.679382   -1.330347
C       2.753016    4.832670   -2.370998
N       2.907709    6.065601   -1.579244
C       3.017959    5.687429   -0.376721
O       2.973150    4.367200   -0.070283
H      -0.831511    2.023976    0.211600
H       1.613417    2.372325    0.817169
H       2.071123    1.078808   -0.313161
H       1.200524    2.467703   -2.218041
H       0.590766    3.678874   -1.092876
H       3.540926    2.967788   -1.467782
H       3.586230    4.740114   -3.074906
H       1.830821    4.880075   -2.960922
H       3.155106    6.339433    0.478913
