18

C      -0.022490    1.437355   -0.021507
C      -0.090899   -0.056145   -0.005812
C       0.446501   -1.074471   -0.944831
N       1.140851   -0.843380    0.365095
C       0.488104   -2.060034    1.011493
C      -0.658989   -1.529187    1.885596
C      -1.208870   -0.967284    0.551041
C      -0.449114   -2.118954   -0.249298
O      -1.006091   -3.200474   -0.887248
H       0.942101    1.767766   -0.417553
H      -0.817186    1.862953   -0.643582
H      -0.128285    1.844099    0.990859
H       0.946548   -1.016685   -1.904414
H       1.207168   -2.814565    1.329017
H      -1.279038   -2.341261    2.280237
H      -0.412669   -0.827169    2.686851
H      -2.249410   -0.692216    0.383848
H      -1.590085   -3.663363   -0.275680
