21

C      -0.069470    1.559943    0.015799
C       0.041133    0.034230    0.016945
C       0.807732   -0.551092   -1.214600
C       1.334559   -1.956099   -0.785002
C       1.535318   -1.822037    0.712383
C       2.277085   -0.622254    1.280001
C       0.786726   -0.598599    1.170610
O       0.161829   -1.270156    2.279816
C       0.776264   -2.521108    1.845292
H       0.922629    2.023762    0.042982
H      -0.583989    1.919577   -0.881649
H      -0.628726    1.915221    0.886710
H      -0.967974   -0.397837    0.035792
H       0.175354   -0.594696   -2.106145
H       1.648530    0.106450   -1.465585
H       0.570581   -2.719143   -0.975486
H       2.226381   -2.248064   -1.349620
H       2.719359   -0.695358    2.268270
H       2.843804   -0.028177    0.571617
H       0.015340   -3.225394    1.487339
H       1.360798   -2.988278    2.646872
