15

O      -0.198006    0.049372   -0.223622
C      -0.039703    1.186102    0.133388
C       1.300441    1.915829    0.030528
C       2.527715    1.117748   -0.492368
C       2.510219    2.045721   -1.704102
C       1.209902    2.017371   -2.387216
N       1.337050    2.870665   -1.175143
C       1.537942    2.667855    1.256460
N       1.706391    3.228708    2.252770
H      -0.871751    1.810424    0.517279
H       3.401359    1.235327    0.147202
H       2.341270    0.059324   -0.681853
H       3.381921    2.537853   -2.119799
H       1.096301    2.627694   -3.276921
H       0.595600    1.122203   -2.363792
