22

C      -0.105143    1.543442   -0.092191
C       0.044329    0.017464   -0.005773
N       0.686734   -0.452610   -1.239141
C       1.882438   -0.858418   -1.195676
O       2.729761   -0.933911   -0.141736
C       2.260647   -0.319291    1.066111
C       0.753623   -0.517549    1.272643
C       0.325635    0.224893    2.547167
C       0.441674   -2.017769    1.438433
H       0.860350    2.051329    0.004864
H      -0.516090    1.804756   -1.070639
H      -0.777970    1.927261    0.679036
H      -0.970266   -0.403144   -0.018868
H       2.375703   -1.235280   -2.090411
H       2.839944   -0.774016    1.874640
H       2.509792    0.749251    1.027267
H       0.613489    1.279923    2.531007
H      -0.760343    0.175537    2.680032
H       0.785067   -0.232357    3.430784
H       0.995630   -2.440185    2.283880
H      -0.625931   -2.165079    1.631859
H       0.700813   -2.592092    0.545887
