22

C      -0.044177    0.946593   -0.863849
C       1.175507    1.292566    0.001310
C       1.408614    0.316478    1.141491
O       2.143353    0.829650    2.266498
C       0.760147    0.473054    2.459853
C      -0.189976    1.574022    2.854101
C       1.844460   -1.068633    0.725695
C       3.283616   -1.336635    0.482679
N       2.601342   -1.907784    1.660119
H      -0.962312    0.927056   -0.267651
H      -0.175753    1.688608   -1.656743
H       0.062344   -0.030835   -1.343941
H       2.077728    1.308259   -0.622201
H       1.071055    2.299607    0.413363
H       0.638814   -0.445100    3.038459
H      -0.064587    2.469517    2.243217
H      -1.225441    1.228760    2.762151
H      -0.025023    1.853050    3.900186
H       1.109372   -1.614361    0.138245
H       3.587789   -2.055972   -0.272126
H       3.980007   -0.518666    0.647937
H       2.843822   -1.327184    2.463085
