15

O      -0.079724    0.056722   -0.612241
C      -0.108984    1.164390   -0.176732
C      -1.198215    2.049051    0.464355
C      -0.173282    3.205784    0.594525
C       0.692624    3.136075    1.856258
O       1.594151    2.174421    1.251567
C       0.954201    2.306321   -0.048736
C       1.823986    2.634838   -1.139674
C       2.517912    2.896898   -2.086273
H      -2.001743    2.251336   -0.251098
H      -1.645160    1.670845    1.387934
H      -0.452906    4.177441    0.196141
H       1.221572    4.065136    2.098952
H       0.214608    2.741898    2.760007
H       3.140857    3.123296   -2.916526
