15

C      -0.059563    1.185677    0.518145
C       0.271482   -0.229933    0.126297
O       0.743153   -1.042019    0.884290
C      -0.033003   -0.614407   -1.351300
C       1.232988   -0.785830   -2.056565
N       2.243081   -0.907668   -2.605403
C      -0.924430   -1.895981   -1.464089
N      -0.412043   -2.981960   -0.842638
O      -1.958539   -1.858439   -2.090265
H       0.471432    1.887282   -0.135293
H      -1.131206    1.367757    0.375092
H       0.213713    1.361548    1.558589
H      -0.605565    0.175438   -1.841453
H       0.328663   -2.864460   -0.165986
H      -0.982141   -3.812420   -0.811899
