16

C       0.044515    1.534445    0.067713
C      -0.040146    0.041186   -0.011783
C      -0.883440   -0.803562    0.855932
N       0.583936   -0.901047    1.007324
C       1.030385   -1.784698   -0.118308
C       0.498708   -0.786026   -1.196037
C      -0.454409   -1.252263   -2.191854
N      -1.224722   -1.639311   -2.962816
H       1.038822    1.893390   -0.218740
H      -0.690349    1.998267   -0.600124
H      -0.158879    1.874710    1.086653
H      -1.363462   -0.316671    1.698881
H      -1.432113   -1.649482    0.446608
H       2.116638   -1.879546   -0.129543
H       0.574439   -2.778434   -0.113856
H       1.323192   -0.275528   -1.699463
