14

C       0.027582    1.524020   -0.290921
C      -0.048347    0.061252    0.047342
O       1.149955   -0.708985   -0.051159
C       0.579095   -0.557491    1.241884
C       1.347951    0.202143    2.245192
N       2.316312    1.048030    2.027703
O       2.684347    1.465561    3.261727
N       1.895094    0.825909    4.211118
N       1.098532    0.069053    3.602611
H       0.904138    1.994760    0.157832
H       0.087755    1.648167   -1.376801
H      -0.874480    2.038240    0.056623
H      -0.929844   -0.461398   -0.329109
H       0.117164   -1.449097    1.663934
