19

O       0.184456    1.393315    0.035863
C       0.054709   -0.011735    0.030864
C      -1.411075   -0.486712    0.078195
C      -2.065239   -0.077926    1.346710
N      -2.630562    0.250809    2.300271
N      -2.150990   -0.065866   -1.098986
C      -2.671467    1.321214   -1.232361
C      -3.932046    0.745473   -1.918965
C      -3.507192   -0.619169   -1.326847
H      -0.030732    1.716798   -0.843838
H       0.514717   -0.464484   -0.857419
H       0.579484   -0.378128    0.918667
H      -1.389701   -1.584821    0.068701
H      -2.893473    1.796687   -0.268032
H      -2.040007    1.992832   -1.824213
H      -4.893016    1.144446   -1.595842
H      -3.872250    0.772004   -3.008110
H      -3.530735   -1.498776   -1.978004
H      -4.041778   -0.846966   -0.393167
