19

N       0.241486    1.356210   -0.214717
C      -0.022608   -0.025221   -0.080978
C      -1.180495   -0.758513    0.050969
C      -0.807042   -2.134286    0.083860
C       0.563441   -2.211010   -0.017685
C       1.485664   -3.385717   -0.051625
C       2.007212   -3.710320   -1.455331
O       2.884503   -4.819996   -1.344161
N       1.024904   -0.912829   -0.126636
H      -0.586602    1.843564   -0.535161
H       0.518960    1.780950    0.666431
H      -2.176931   -0.351801    0.136271
H      -1.470370   -2.980077    0.189243
H       2.351747   -3.230001    0.605116
H       0.959712   -4.265711    0.330772
H       1.154651   -3.928497   -2.116211
H       2.525278   -2.831508   -1.873739
H       3.177547   -5.062400   -2.227197
H       1.979782   -0.636175   -0.279833
