16

C      -0.130611    1.442196    0.012003
C      -0.072535   -0.011572    0.003075
C      -0.024896   -1.213637   -0.004297
C       0.072415   -2.660984   -0.013633
O      -1.258671   -3.223650   -0.003543
C      -1.317327   -4.562378   -0.009871
N      -0.305888   -5.325870   -0.023838
C      -2.758116   -5.029050    0.002016
O      -3.046155   -6.196707   -0.001128
H       0.876520    1.872951    0.005060
H      -0.661627    1.824658   -0.866220
H      -0.645039    1.814430    0.904379
H       0.600557   -3.030277   -0.900382
H       0.618186   -3.040468    0.858000
H      -0.634030   -6.294250   -0.025540
H      -3.514229   -4.219788    0.013635
