18

C      -0.096635    1.458463   -0.020681
C      -0.025469   -0.056484   -0.051471
O       0.935996   -0.687832    0.324628
N      -1.142211   -0.670799   -0.632423
C      -2.491068   -0.645638   -0.057010
C      -3.440491   -1.134886   -1.150841
C      -2.588457   -2.469532   -1.225040
O      -1.978205   -2.818280   -2.430769
C      -1.682634   -1.915877   -0.108364
H       0.915445    1.863218    0.008607
H      -0.642329    1.853400   -0.880508
H      -0.619299    1.782870    0.886642
H      -2.705638   -0.021703    0.801803
H      -4.459003   -1.311136   -0.798305
H      -3.462376   -0.535029   -2.063445
H      -3.171523   -3.332732   -0.896995
H      -1.337046   -2.122305   -2.624348
H      -1.141743   -2.439381    0.669654
