18

N      -0.143208   -1.169107    0.273643
C      -0.040659   -0.017776    0.230091
C       0.023919    1.415158    0.140611
C       0.672008    2.241694    1.243003
C       1.336339    2.150494   -0.095477
C       2.646576    1.416420   -0.259078
C       3.932528    2.198933    0.103447
C       4.168768    1.054827    1.108505
O       2.898612    0.447721    0.780912
H      -0.850618    1.846789   -0.335697
H       0.168969    3.156566    1.532736
H       1.132170    1.679284    2.046113
H       1.247964    3.008550   -0.757533
H       2.684074    0.939344   -1.248094
H       4.669493    2.304433   -0.693286
H       3.746393    3.173154    0.559330
H       5.005103    0.387434    0.869278
H       4.227334    1.335206    2.165996
