18

O      -0.144250    1.455689    0.195296
C      -0.010919    0.044273    0.039655
C       0.904329   -0.553023    1.126977
C       0.777561   -2.049647    1.257402
C      -0.348507   -2.693076    0.944061
C      -1.558151   -1.992892    0.446512
C      -2.155167   -0.869243    1.285134
C      -1.401642   -0.546227    0.027454
H       0.732254    1.845003    0.109741
H       0.439107   -0.180050   -0.941598
H       1.943996   -0.274787    0.912114
H       0.656011   -0.061036    2.077754
H       1.630764   -2.596896    1.647558
H      -0.413789   -3.770776    1.066639
H      -2.260732   -2.599867   -0.115010
H      -3.232235   -0.742509    1.275207
H      -1.689917   -0.668293    2.243381
H      -1.999527   -0.217285   -0.816843
