14

O       0.020314   -0.000610   -0.031009
C      -0.016166    1.196702   -0.009952
C      -1.248425    2.127587    0.026398
C      -0.539026    3.491686    0.092849
C       0.152988    3.640016    1.458360
O       1.224152    2.684510    1.347730
C       1.150036    2.206950    0.001214
O       0.621036    3.272127   -0.747984
H      -1.819956    2.022374   -0.899854
H      -1.902289    1.897050    0.870521
H      -1.096292    4.355600   -0.262787
H       0.567468    4.642822    1.605129
H      -0.493229    3.381632    2.302968
H       2.123691    1.877996   -0.354502
