15

N      -0.065039    1.444883   -0.151129
C      -0.043595    0.025982   -0.023214
C      -0.459739   -0.810727   -1.202914
C      -1.309261   -0.817172    0.052899
C      -1.005200   -1.930610    0.990695
O      -1.713196   -2.770572    1.449545
O       0.352972   -1.868188    1.324122
C       0.911850   -0.673353    0.894661
N       2.031670   -0.233994    1.261048
H      -0.047979    1.879078    0.767526
H       0.778213    1.755464   -0.625587
H      -0.875250   -0.249524   -2.031350
H       0.105711   -1.696386   -1.468798
H      -2.307374   -0.403927    0.034505
H       2.486573   -0.874810    1.912821
