18

C      -0.026085    1.390442   -0.083905
N       0.012249   -0.044801    0.052443
C      -1.160437   -0.880874   -0.009810
C      -0.582103   -2.293798   -0.010564
O      -1.184785   -3.341085   -0.009838
N       0.787670   -2.134991   -0.017049
C       1.717279   -3.242006   -0.027460
C       1.174555   -0.777508   -0.013323
N       2.346438   -0.280475   -0.055082
H       0.997116    1.761261   -0.019025
H      -0.455020    1.695221   -1.048979
H      -0.624482    1.841700    0.716430
H      -1.832177   -0.747686    0.848275
H      -1.753774   -0.723837   -0.922817
H       1.125270   -4.158189   -0.016923
H       2.340414   -3.223515   -0.927741
H       2.365723   -3.217625    0.854367
H       3.062529   -0.999584   -0.086230
