18

C      -0.103676    1.632133   -0.002202
C      -0.027793    0.112219   -0.069926
C      -1.421383   -0.536912   -0.114483
O      -2.122610   -0.331476    1.093016
C       0.883567   -0.429818   -1.188153
O       1.497819   -1.566939   -0.599606
C       1.714207   -1.190470    0.734077
O       0.611995   -0.394143    1.129498
H       0.883610    2.060588    0.190357
H      -0.481612    2.038308   -0.946890
H      -0.785036    1.935140    0.795887
H      -2.022139   -0.089973   -0.914539
H      -1.300344   -1.609120   -0.335812
H      -1.514826   -0.606702    1.791360
H       0.335946   -0.756141   -2.075712
H       1.634917    0.318707   -1.482798
H       1.769268   -2.091218    1.353281
H       2.646668   -0.605913    0.832683
