17

N      -0.564193    1.401568   -0.464645
C      -0.009957    0.112159   -0.052634
C      -1.123986   -0.909647    0.272783
C      -1.300675   -1.758445   -0.996875
O      -2.323064   -1.152637   -1.797979
C       0.049089   -1.640139   -1.674061
C       0.754608   -0.621700   -1.165998
C       2.017373   -0.161364   -1.627107
N       3.045566    0.253996   -1.963724
H       0.178790    2.039018   -0.737566
H      -1.156904    1.263393   -1.279580
H       0.636237    0.292478    0.811626
H      -0.805460   -1.555381    1.095217
H      -2.054436   -0.416166    0.556611
H      -1.570257   -2.798147   -0.768328
H      -2.375360   -1.624925   -2.635979
H       0.351810   -2.253255   -2.515912
