23

C       0.291217    0.113226    1.534067
C      -0.024252   -0.132561    0.054430
C      -1.420117   -0.688688   -0.170604
C      -1.757661   -1.401046   -1.456433
C      -1.646041   -2.170458   -0.153096
O      -2.462080    0.033671    0.438880
C      -2.732325    1.316720   -0.111962
C      -3.697486    1.989555    0.852623
O      -3.142151    2.074345    2.151473
H       1.315423    0.476609    1.660036
H      -0.385562    0.860243    1.958459
H       0.183944   -0.806954    2.117905
H       0.104637    0.799676   -0.510009
H       0.694141   -0.840567   -0.374193
H      -2.754247   -1.254866   -1.857592
H      -0.981171   -1.524874   -2.203998
H      -0.790220   -2.819845   -0.004369
H      -2.568360   -2.517806    0.297513
H      -1.813866    1.914029   -0.184702
H      -3.170008    1.228784   -1.117848
H      -3.904618    3.011685    0.519595
H      -4.649427    1.435376    0.859167
H      -2.863659    1.176533    2.368533
