17

C      -0.433506    1.358915    0.431834
N      -0.002435   -0.012349    0.203160
C       1.341002   -0.239622   -0.312005
C       0.977991   -0.640577    1.077742
C       1.622202    0.070426    2.267654
C       0.777924    0.068005    3.453321
C       0.066987    0.050225    4.430209
C      -0.733187    0.034851    5.536100
N      -1.414002    0.022661    6.477437
H       0.375365    2.059015    0.695702
H      -0.904516    1.729619   -0.483368
H      -1.180309    1.375852    1.231007
H       1.439943   -0.981131   -1.100261
H       1.999260    0.623937   -0.417346
H       0.762935   -1.687984    1.281253
H       2.567519   -0.435218    2.505041
H       1.886157    1.102581    2.013946
