19

O       0.115804    1.355528    0.200233
C       0.045811   -0.054621    0.052930
C      -1.430344   -0.444230   -0.016123
C      -1.654458   -1.966471   -0.221598
C      -2.722266   -2.361873    0.804690
C      -3.772514   -3.364924    0.565543
O      -2.647364   -3.672203    1.390089
C      -2.888663   -1.187349    1.699218
C      -2.189021   -0.142648    1.258725
H       1.038125    1.604104    0.308935
H       0.556703   -0.387000   -0.865387
H       0.518921   -0.572260    0.902885
H      -1.867296    0.128364   -0.845502
H      -1.942792   -2.214976   -1.245508
H      -0.741022   -2.527828    0.005067
H      -4.728735   -3.290118    1.083894
H      -3.808281   -3.882031   -0.393691
H      -3.516572   -1.221732    2.581744
H      -2.147181    0.836036    1.720756
