19

C      -0.063466    1.481693   -0.068435
C       0.088958   -0.023107   -0.041479
C       1.480254   -0.654778   -0.057153
C       0.633338   -0.714327    1.162165
O       0.973854    0.011070    2.373181
C       0.367229   -0.954819    3.157130
N       0.147202   -0.990542    4.390619
C       0.053272   -1.873989    1.972769
N      -1.298630   -2.284430    1.668399
H       0.698468    1.963582    0.550497
H       0.029861    1.867171   -1.088881
H      -1.042198    1.786607    0.317209
H      -0.682830   -0.583706   -0.563957
H       1.644134   -1.567234   -0.621400
H       2.327374    0.023769   -0.031369
H       0.489056   -0.149046    4.858648
H       0.701443   -2.755700    1.970300
H      -1.573209   -3.047704    2.278812
H      -1.945870   -1.522643    1.849956
