20

C       0.091867    1.477116    0.278381
C      -0.056324    0.004266   -0.142402
C      -1.473583   -0.488669   -0.122633
C      -2.169791   -0.976004   -1.157021
C      -3.519168   -1.468079   -0.759162
C      -3.515432   -2.629614    0.217005
C      -3.599180   -1.218551    0.739028
C      -2.307741   -0.516156    1.152605
H       1.140325    1.788619    0.241093
H      -0.481086    2.132353   -0.385456
H      -0.266725    1.640805    1.299515
H       0.358573   -0.132351   -1.147545
H       0.556231   -0.614089    0.529866
H      -1.790394   -1.057791   -2.170496
H      -4.369422   -1.338499   -1.420068
H      -4.416458   -3.230730    0.288793
H      -2.589838   -3.184444    0.337187
H      -4.529740   -0.908316    1.199447
H      -1.786005   -1.036339    1.967821
H      -2.508321    0.499575    1.519524
