21

C      -0.058511    1.501634    0.067305
C       0.048133   -0.022613   -0.002647
C       0.751857   -0.506754   -1.257550
O       2.085714   -0.054402   -1.238101
C       2.733334   -0.290724   -2.481531
C       2.565681   -1.728467   -2.929514
C       2.879753   -2.869598   -1.987941
C       1.447118   -2.514683   -2.290199
O       0.692972   -1.918155   -1.269313
H       0.933100    1.960260    0.038059
H      -0.638211    1.900125   -0.772969
H      -0.554945    1.814610    0.990213
H       0.605034   -0.412640    0.855944
H      -0.943244   -0.486575    0.018631
H       0.260993   -0.114929   -2.169677
H       2.317886    0.382943   -3.249204
H       3.785615   -0.028249   -2.334164
H       2.741247   -1.894531   -3.988062
H       3.294051   -3.782210   -2.401903
H       3.222895   -2.611054   -0.992224
H       0.853882   -3.190882   -2.899959
