12

C      -0.046486    1.562492   -0.009483
C       0.038624    0.033881   -0.027203
N       0.836953   -0.484750   -1.143979
C       1.748545   -1.181642   -0.609963
O       1.785713   -1.294077    0.759744
C       0.711966   -0.528922    1.224406
O       0.468686   -0.402153    2.381590
H       0.952436    2.005667    0.024461
H      -0.551117    1.916004   -0.910985
H      -0.605205    1.889936    0.870757
H      -0.974492   -0.382924   -0.089922
H       2.533240   -1.722503   -1.124892
