17

C       0.373392    1.235060   -0.157630
C       0.150351   -0.200131   -0.077309
C      -0.042874   -1.386714   -0.016774
C      -0.270962   -2.822762    0.070362
C      -1.756985   -3.211874    0.098104
O      -2.438993   -2.798884   -1.058206
O       0.256612   -3.515841   -1.095748
C       1.598119   -3.584136   -1.221353
O       2.125795   -4.123207   -2.146228
H       1.442427    1.470063   -0.193847
H      -0.094828    1.656629   -1.053247
H      -0.051400    1.746012    0.713051
H       0.213581   -3.232637    0.967570
H      -1.812909   -4.301324    0.246606
H      -2.235256   -2.721870    0.950815
H      -1.971284   -3.177632   -1.811728
H       2.135081   -3.100664   -0.384670
