19

C       0.765330    1.482753    0.041191
C      -0.014406    0.165212   -0.097884
C       0.418400   -0.717307   -1.299454
C       1.233606   -1.844262   -0.689842
O       2.279077   -1.368841    0.158927
C       1.072589   -1.891448    0.775956
C       1.199905   -3.082429    1.674638
C       0.181986   -0.723839    1.143714
O      -0.312761   -0.544170    2.228153
H       1.840198    1.289678    0.083058
H       0.563551    2.139440   -0.810910
H       0.468894    2.005764    0.954804
H      -1.082528    0.397582   -0.152380
H      -0.450708   -1.134719   -1.819428
H       1.005137   -0.160129   -2.036819
H       1.467981   -2.740694   -1.259576
H       1.923158   -3.793698    1.269243
H       1.528502   -2.769991    2.670089
H       0.233076   -3.582325    1.787818
