19

O      -0.015184    1.436416   -0.087640
C       0.051121    0.013571    0.021432
C       0.692868   -0.505465    1.336801
C      -0.505560   -0.917755    2.204377
C      -1.462039    0.298604    2.452668
C      -2.268646   -0.150066    1.239269
C      -1.550032   -1.496089    1.203420
C      -1.366686   -0.537513    0.070427
O      -2.009076   -0.824928   -1.132232
H       0.878715    1.765721   -0.223812
H       0.558441   -0.402105   -0.860228
H       1.323468   -1.376062    1.123813
H       1.319688    0.259405    1.808037
H      -0.248928   -1.511334    3.081474
H      -2.032522    0.176029    3.377599
H      -1.013611    1.296107    2.426488
H      -3.313896    0.050751    1.033163
H      -1.932240   -2.503541    1.108502
H      -2.242323    0.016981   -1.539407
