18

C      -0.003314    1.548838   -0.012075
C      -0.009536    0.016711    0.046051
C       0.772363   -0.524711    1.248655
N      -1.379531   -0.506915    0.027825
C      -1.935827   -1.304568   -0.949618
C      -3.223937   -1.544964   -0.549858
N      -3.481144   -0.918831    0.645938
C      -2.358437   -0.309358    0.959788
H       1.023682    1.919182   -0.084370
H      -0.564006    1.907533   -0.879208
H      -0.453449    1.979781    0.887638
H       0.455673   -0.365404   -0.868254
H       0.346393   -0.165265    2.190478
H       0.757229   -1.617650    1.262747
H       1.813560   -0.191802    1.202150
H      -1.367812   -1.613345   -1.812031
H      -3.977531   -2.131131   -1.053648
H      -2.196404    0.286029    1.845689
