18

C      -0.176252    1.631824    0.458022
C      -0.050626    0.144634    0.043281
C       0.757194   -0.596414    1.028819
N       1.403233   -1.158991    1.803682
C      -1.356142   -0.492315   -0.142421
C      -2.440595   -0.987846   -0.303503
C      -3.741483   -1.620642   -0.473509
C      -3.910461   -2.859534    0.414749
O      -5.205138   -3.371458    0.154910
H       0.814270    2.081170    0.561661
H      -0.738000    2.172226   -0.306717
H      -0.705701    1.717725    1.408901
H       0.502381    0.101486   -0.905398
H      -4.544611   -0.912235   -0.237588
H      -3.887108   -1.919798   -1.518387
H      -3.124488   -3.590674    0.175164
H      -3.786923   -2.572469    1.469338
H      -5.336282   -4.153103    0.699184
