17

C      -0.030011    1.575631   -0.124307
C       0.100894    0.077932   -0.002539
O      -1.007670   -0.612673   -0.514601
C       1.383939   -0.686515   -0.196591
N       2.501362    0.112667    0.385065
C       1.966855   -0.083754    1.701351
N       2.417156    0.011009    2.875513
C       0.686037   -0.669747    1.191384
O      -0.146802   -1.515639    1.881664
H       0.897911    2.075793    0.156151
H      -0.266992    1.832803   -1.161509
H      -0.843089    1.939845    0.510575
H      -1.371879   -1.155601    0.196213
H       1.532864   -1.466776   -0.930215
H       3.436501   -0.250272    0.237436
H       3.381202    0.350067    2.883352
H       0.388142   -2.154425    2.366992
