17

O       0.279610    1.012039   -0.763528
C      -0.012080    0.092503    0.280794
C      -1.362007   -0.463444    0.214975
C      -2.495797   -0.867942    0.149960
C      -3.843463   -1.369872    0.066482
C      -4.320624   -1.900303   -1.296128
C      -4.027627   -2.872358   -0.205297
C      -4.821286   -0.722694    0.905664
C      -5.644784   -0.189447    1.600426
H      -0.431893    1.660727   -0.779700
H       0.731321   -0.707174    0.187545
H       0.139482    0.550018    1.271754
H      -5.354815   -1.698943   -1.547521
H      -3.615660   -1.808807   -2.113269
H      -3.118934   -3.458930   -0.262450
H      -4.857866   -3.347430    0.302905
H      -6.365152    0.286469    2.218278
