23

C      -0.155410    1.564265   -0.043762
C       0.094801    0.057154   -0.064863
C       1.036517   -0.431876   -1.187811
C       1.392432   -1.871710   -0.771746
C       1.451583   -1.854285    0.771876
O       0.913287   -3.020332    1.364156
C       2.777619   -1.330084    1.398579
C       2.100816    0.043228    1.666854
C       0.728527   -0.538533    1.203873
H       0.773625    2.124254    0.108326
H      -0.592584    1.903028   -0.989324
H      -0.846295    1.842347    0.759314
H      -0.871430   -0.448791   -0.204425
H       0.576292   -0.378075   -2.179122
H       1.936970    0.194701   -1.222220
H       0.580997   -2.550454   -1.058432
H       2.315454   -2.240634   -1.232532
H       1.426522   -3.775241    1.055495
H       3.016488   -1.875053    2.314863
H       3.658115   -1.323973    0.748595
H       2.133449    0.386452    2.702687
H       2.477791    0.850751    1.034713
H       0.017951   -0.673123    2.021537
