18

C       0.048383    1.599222    0.101734
C       1.549983    1.448132   -0.090974
C       2.164217    0.626289    0.990230
C       1.787949    0.634466    2.414938
C       0.749122    0.043725    3.031971
C      -0.335701   -0.710633    2.430039
C      -0.680178   -0.733240    1.132020
C      -0.020068    0.035835    0.041050
N       1.492262   -0.066144   -0.127467
H      -0.263944    2.057397    1.042630
H      -0.468408    2.086395   -0.726441
H       2.161419    2.003605   -0.795166
H       3.241462    0.523556    0.856851
H       2.508979    1.157960    3.040491
H       0.709032    0.130774    4.115474
H      -0.938291   -1.293078    3.123358
H      -1.526249   -1.349222    0.838169
H      -0.431704   -0.276456   -0.920939
