17

C       0.456542    1.483483    0.333310
C       0.235731    0.000137    0.188744
O       1.373360   -0.843937    0.072493
C       0.566236   -0.968889    1.268509
C       1.178456   -0.534608    2.591349
C       2.670765   -0.288138    2.465890
O       3.196044    0.774904    2.671756
C      -0.222939   -2.245496    1.267300
O      -0.532879   -2.853451    2.258943
H       1.272323    1.711139    1.021577
H       0.698093    1.915836   -0.642813
H      -0.458848    1.963930    0.694470
H      -0.575839   -0.280631   -0.486824
H       0.704552    0.369738    2.980018
H       1.010990   -1.346454    3.310090
H       3.265341   -1.178360    2.170066
H      -0.491280   -2.592355    0.246180
