15

C       0.006007    1.550552    0.010781
C       1.313369    0.757823   -0.006843
C       0.005598    0.061324    0.002285
C      -0.594297   -1.029465    0.900132
C      -1.866310   -1.028469    0.014862
C      -0.612306   -1.019258   -0.895691
O      -0.006533   -2.046883   -0.009576
H      -0.261518    2.067072    0.927346
H      -0.279757    2.077484   -0.894280
H       1.894388    0.759655   -0.923443
H       1.912657    0.749249    0.897877
H      -0.489086   -1.188623    1.973960
H      -2.423229   -1.966141    0.015117
H      -2.501905   -0.139825    0.026286
H      -0.528669   -1.166189   -1.973153
