17

C      -0.418341    1.314247    0.340925
C      -0.074794   -0.104230    0.000485
C       0.242194   -0.592083   -1.244175
N       0.495840   -1.944159   -1.128479
C       0.349137   -2.308152    0.177996
O       0.594948   -3.608711    0.507913
C      -0.268056   -4.208384    1.374997
N       0.021412   -5.340255    1.842359
C      -0.000945   -1.204923    0.916051
H       0.276082    1.734717    1.077706
H      -0.381808    1.950880   -0.547896
H      -1.425248    1.398335    0.766633
H       0.315685   -0.093646   -2.197097
H       0.752040   -2.576819   -1.866149
H      -1.160977   -3.602281    1.564021
H      -0.728187   -5.666713    2.448752
H      -0.155421   -1.174613    1.983272
