11

O       0.109157    1.326989    0.082833
C       0.071632   -0.005439    0.038353
N       0.080926   -0.616777   -1.137419
C       0.041817   -1.941873   -1.105758
F       0.052195   -2.526986   -2.286903
N      -0.005136   -2.739532   -0.062760
C      -0.014255   -2.112519    1.125142
C       0.022953   -0.740680    1.232320
F       0.013784   -0.123318    2.409630
H       0.139181    1.637214   -0.834313
H      -0.052552   -2.726887    2.019968
