19

C      -0.086422    1.615201    0.164254
C       0.002093    0.099566    0.079000
C      -1.340882   -0.562797   -0.280382
C      -1.927876   -0.087650   -1.526633
C      -2.411732    0.305462   -2.554046
O       1.046733   -0.321286   -0.843976
C       1.887561   -0.785277    0.229201
C       0.750968   -0.585593    1.254435
O       0.978998    0.250862    2.360254
H       0.880951    2.042923    0.433048
H      -0.399591    2.015013   -0.803207
H      -0.813519    1.919345    0.923338
H      -1.183256   -1.646229   -0.342843
H      -2.039588   -0.390253    0.549654
H      -2.836281    0.647893   -3.464900
H       2.245859   -1.807584    0.061583
H       2.742607   -0.120266    0.409554
H       0.276728   -1.528340    1.557804
H       1.386388   -0.268168    3.060075
