19

O       0.041922    0.013080   -0.426435
C      -0.029084    1.159773   -0.052659
C      -1.354451    1.776519    0.420546
C      -1.313832    3.267135    0.832142
C      -0.061345    3.586274    1.626446
C       1.072722    3.054397    1.193796
C       2.506783    2.813017    1.621080
C       2.522789    1.572920    0.658629
C       1.178559    2.075848    0.045827
H      -2.104681    1.592385   -0.355747
H      -1.660415    1.170059    1.282076
H      -1.363487    3.901382   -0.064019
H      -2.212365    3.501223    1.411074
H      -0.126857    4.197806    2.521426
H       3.192602    3.600742    1.289807
H       2.687379    2.628064    2.683645
H       3.371718    1.493533   -0.021628
H       2.398744    0.622739    1.181763
H       1.315701    2.561362   -0.931028
