17

N       0.058756    0.201078    1.272014
C      -0.049541   -0.110621    0.049897
O       0.983056   -0.149616   -0.862622
C       1.664105   -1.400546   -0.893210
C       0.820119   -2.594480   -1.231785
C      -0.502005   -2.672806   -1.392669
C      -1.509695   -1.588254   -1.291028
C      -2.217727   -1.291619    0.010036
N      -1.272133   -0.357242   -0.561070
H       1.028954    0.430086    1.484219
H       2.456500   -1.283993   -1.641309
H       2.163195   -1.574330    0.074694
H       1.403437   -3.507051   -1.345300
H      -0.923483   -3.637988   -1.668544
H      -2.097855   -1.446514   -2.198165
H      -3.259430   -0.984513   -0.000906
H      -1.893635   -1.830891    0.895709
