16

C      -0.001145    1.472078   -0.043852
N       0.006319    0.030908    0.078517
N       0.035390   -0.734724   -1.044426
N       0.032872   -2.007392   -0.689350
C      -0.003364   -2.024360    0.650299
C      -0.027405   -0.764365    1.170410
C       0.004119   -0.814591    2.661726
C      -0.181512   -2.372127    2.841164
O       0.010914   -3.031654    1.556216
H       0.872785    1.907151    0.449787
H       0.028898    1.703581   -1.108528
H      -0.909155    1.893751    0.397108
H       0.954941   -0.464730    3.082127
H      -0.798795   -0.266629    3.164312
H       0.533566   -2.803678    3.543733
H      -1.196810   -2.598473    3.182181
