17

C      -0.110131    1.580382   -0.010231
C      -0.051368    0.060500   -0.015210
O      -1.328035   -0.531526    0.109834
C       0.758093   -0.612428   -1.160952
N       1.706104   -1.103078   -0.142443
C       2.840537   -1.882913   -0.294801
N       3.559705   -2.243938    0.685635
C       1.001016   -0.566510    0.941805
O       1.140531   -0.614280    2.128778
H       0.878344    2.020210   -0.175515
H      -0.791267    1.931214   -0.791030
H      -0.477019    1.936593    0.957891
H      -1.611544   -0.418171    1.024846
H       0.201438   -1.406792   -1.663513
H       1.205875    0.068491   -1.890013
H       3.016050   -2.128075   -1.350423
H       4.340636   -2.809047    0.356226
