17

C       0.728456    0.288561    0.850613
C      -0.300558    0.311637   -0.257764
O      -0.332167    1.154979   -1.125633
C      -1.339965   -0.769913   -0.238013
N      -2.169831   -1.140013   -1.421135
C      -2.726195   -1.986128   -0.319170
C      -1.308414   -2.242534    0.286930
N      -1.655839   -1.834632    1.687972
C      -2.498889   -0.945143    0.829393
H       1.486161   -0.468379    0.611934
H       1.215375    1.262066    0.925199
H       0.274614   -0.009730    1.799838
H      -2.803915   -0.374634   -1.659888
H      -3.546596   -2.693174   -0.455787
H      -0.587232   -3.020548    0.037540
H      -2.235441   -2.551760    2.131673
H      -3.169805   -0.178375    1.222180
