15

O      -0.264467    0.003825    0.069328
C      -0.148228    1.198296    0.038727
N      -1.050029    2.230462   -0.028229
C      -0.060587    3.311788   -0.022063
C       1.040582    2.209440    0.065050
C       1.892957    2.178733    1.299984
C       3.186157    1.487303    1.328692
O       3.119802    2.913451    1.254745
H      -2.055424    2.232259   -0.115439
H      -0.041658    3.912804   -0.935969
H      -0.121700    3.970666    0.849965
H       1.666651    2.145062   -0.827843
H       1.350053    2.279510    2.241673
H       3.558982    1.082055    2.267673
H       3.546064    0.987241    0.430908
