23

C       0.210527    1.472122    0.186724
C      -0.238111    0.053787   -0.185387
C       0.588615   -0.547386   -1.305136
C       1.923026   -1.253253   -1.079351
C       2.533922   -1.441199    0.293098
C       0.698433   -2.034243   -1.507503
O       0.057380   -2.839834   -0.543875
C       0.592674   -2.619255   -2.899607
O       1.053932   -3.964614   -2.943360
H       1.245184    1.480709    0.544594
H       0.155585    2.144660   -0.676659
H      -0.421690    1.891817    0.975693
H      -0.207900   -0.595405    0.693174
H      -1.289560    0.076136   -0.500071
H       0.538639    0.028943   -2.228604
H       2.659259   -1.096573   -1.864802
H       1.780700   -1.678586    1.047505
H       3.262391   -2.260483    0.281971
H       3.064059   -0.540110    0.619087
H       0.674309   -3.542678   -0.311503
H      -0.449304   -2.553942   -3.249328
H       1.215899   -2.049993   -3.596635
H       0.385886   -4.493556   -2.495520
