18

C       0.011639    1.417541   -0.022903
O       0.011125    0.007579   -0.030188
C      -1.213613   -0.593592    0.017932
C      -1.363741   -1.959153    0.015874
C      -0.355278   -3.052745   -0.033319
N      -2.739509   -2.190956    0.072917
C      -3.409322   -1.010953    0.108505
O      -4.766552   -1.054656    0.165731
C      -2.506346    0.027183    0.076528
H       1.057128    1.730122   -0.065395
H      -0.520651    1.829605   -0.891740
H      -0.445353    1.820357    0.891924
H      -0.391122   -3.703833    0.850965
H      -0.470264   -3.696956   -0.915863
H       0.642672   -2.610608   -0.076260
H      -3.183937   -3.092032    0.086154
H      -5.095181   -0.151217    0.184812
H      -2.739698    1.078865    0.092805
