20

O       0.207882    0.972122   -0.729134
C       0.046099   -0.256504   -0.064701
C       0.521841   -0.254506    1.401872
O      -0.207541   -1.295552    2.025357
C      -1.538799   -1.185253    1.542743
C      -1.444843   -0.724755    0.068436
N      -2.331043    0.407098   -0.188744
C      -2.903284    0.502143   -1.530996
C      -3.749604    0.102401   -0.375845
H      -0.538662    1.520494   -0.450381
H       0.615220   -0.997960   -0.632636
H       1.587297   -0.461620    1.522648
H       0.297804    0.727739    1.852385
H      -2.020967   -2.157479    1.670502
H      -2.102242   -0.431505    2.114671
H      -1.655094   -1.559321   -0.617088
H      -2.975342    1.503487   -1.944054
H      -2.634757   -0.268428   -2.250209
H      -4.055187   -0.940435   -0.318080
H      -4.445987    0.806391    0.069488
