15

O       0.469434    0.536386    0.750612
C      -0.193077    0.159899   -0.443124
C      -1.503365   -0.494454   -0.112838
O      -2.544060   -0.682384   -1.186130
C      -3.212107   -1.270020    0.021359
C      -1.846981   -1.950427    0.357642
O      -1.430950   -2.982513   -0.468120
C      -2.695624   -0.001972    0.732846
O      -3.036631    0.908924    1.415932
H      -0.056038    1.223556    1.175878
H      -0.371996    1.009307   -1.118530
H       0.464661   -0.547684   -0.958522
H      -4.203598   -1.695931   -0.112413
H      -1.641770   -2.217288    1.395821
H      -1.646828   -2.707291   -1.370926
