18

C       0.040280    1.507579    0.012052
C      -0.060560    0.021166   -0.004078
C      -1.133937   -0.776851    0.010174
C      -0.695319   -2.218779    0.031902
C      -1.063040   -2.956597    1.326731
O      -1.175765   -2.928045   -1.104521
C       0.846225   -2.088914   -0.090680
O       1.621194   -3.004201   -0.258854
N       1.131372   -0.747621   -0.016604
H       0.586323    1.860043    0.895326
H       0.577116    1.877247   -0.870381
H      -0.954631    1.956250    0.019248
H      -2.162720   -0.451400    0.051729
H      -2.147090   -3.090879    1.373483
H      -0.582368   -3.940424    1.337343
H      -0.736115   -2.402537    2.212091
H      -0.576583   -3.678207   -1.221346
H       2.050556   -0.376716   -0.199936
