19

C      -0.067113    1.575502   -0.017365
C      -0.027195    0.047545    0.008777
C       1.143808   -0.577774   -0.820813
O       1.801374   -1.039235    0.364613
C       0.724253   -0.577118    1.208381
C      -1.358609   -0.605293   -0.313841
O      -1.754070   -1.603170    0.254045
C      -2.213184   -0.027227   -1.438495
O      -3.306689   -0.847257   -1.714468
H       0.923235    1.975413    0.219173
H      -0.351506    1.960506   -1.001519
H      -0.773535    1.971155    0.720137
H       0.862785   -1.403205   -1.487778
H       1.743072    0.150881   -1.381577
H       1.071491    0.138721    1.962413
H       0.193237   -1.403650    1.688696
H      -2.535411    0.983905   -1.137710
H      -1.580891    0.107565   -2.331911
H      -3.265680   -1.552832   -1.048440
