18

C      -0.039065    1.377228    0.779961
N      -0.043090    0.274522   -0.163745
C      -1.332091   -0.336797   -0.433969
C      -1.368126   -1.069271   -1.772745
O      -0.853601   -2.387729   -1.719137
C       0.497655   -2.601422   -1.584186
O       0.913119   -3.704932   -1.841979
C       1.368362   -1.519357   -1.126713
C       1.120655   -0.347429   -0.487585
H       0.952364    1.833341    0.813102
H      -0.759791    2.141769    0.469448
H      -0.303837    1.054208    1.797538
H      -1.620917   -1.040256    0.362382
H      -2.079701    0.464836   -0.449060
H      -2.411112   -1.188892   -2.076382
H      -0.853711   -0.476424   -2.538895
H       2.413895   -1.775764   -1.242268
H       1.992069    0.223866   -0.177948
