18

C       0.024005    1.445092   -0.007594
O       1.215560    0.639513    0.011994
C      -0.048086   -0.012053    0.006906
C      -0.586010   -0.916826    1.087151
C      -1.341684   -1.691559    0.040669
C      -0.545124   -0.974534   -1.090799
C       0.577783   -1.955246   -1.443611
C       0.880316   -2.601454   -0.066331
N      -0.291442   -2.333598    0.806037
H      -0.168984    2.010807    0.903698
H      -0.158992    1.987599   -0.934588
H      -0.848710   -0.644946    2.103618
H      -2.357788   -2.064236    0.031182
H      -1.082168   -0.532155   -1.929281
H       0.234620   -2.696969   -2.172354
H       1.448054   -1.440700   -1.858965
H       1.007927   -3.684934   -0.137885
H       1.778035   -2.184021    0.396631
