20

C       0.054980    1.545224   -0.115525
C       0.056850    0.017624   -0.017117
C       0.654301   -0.531578    1.300826
C      -0.175407   -0.159377    2.537387
C       0.862555   -2.015149    1.180929
N       1.642907   -2.621059    0.297659
C       1.479749   -3.939759    0.588086
N       0.654895   -4.201883    1.587650
N       0.269536   -2.953403    1.953019
H       1.066286    1.949720    0.005145
H      -0.314191    1.865604   -1.094418
H      -0.583590    2.011639    0.641296
H      -0.965512   -0.367127   -0.129330
H       0.638062   -0.403350   -0.842839
H       1.654503   -0.091237    1.410426
H       0.271715   -0.553562    3.455958
H      -0.240408    0.924948    2.648401
H      -1.200999   -0.540568    2.459328
H       1.983625   -4.728854    0.049793
H      -0.375146   -2.835802    2.716308
