21

O       0.159983    1.394896    0.146150
C       0.065228   -0.008197   -0.004826
C      -1.339402   -0.562218   -0.236161
C      -1.688597   -0.293795   -1.753784
C      -2.083868   -1.784944   -1.877305
C      -1.161912   -2.060852   -0.666426
C       0.331671   -2.101560   -1.101537
C       0.667085   -0.608560   -1.303097
C      -0.287702   -0.040487   -2.376316
H      -0.417484    1.809148   -0.502606
H       0.541109   -0.429241    0.887303
H      -2.108121   -0.336277    0.501537
H      -2.434512    0.457885   -2.019189
H      -3.137146   -1.946933   -1.628916
H      -1.858821   -2.295819   -2.820366
H      -1.439057   -2.859996    0.022938
H       0.957346   -2.528426   -0.309951
H       0.484535   -2.705366   -2.002271
H       1.723559   -0.391697   -1.470461
H      -0.174014   -0.524671   -3.351448
H      -0.101387    1.029228   -2.527300
