18

C       0.610509    1.508612   -0.018216
C       0.060270    0.075339   -0.016090
C       0.437105   -0.805310   -1.236142
C       1.312957   -1.944530   -0.706945
C       2.572164   -1.550369   -0.009959
C       1.330190   -1.890012    0.810328
C       0.513490   -0.713179    1.233027
O       0.204908   -0.429682    2.365142
H       1.698896    1.526546   -0.137405
H       0.177744    2.090336   -0.837934
H       0.365083    2.004651    0.924927
H      -1.029944    0.142940    0.069638
H      -0.463713   -1.221150   -1.697179
H       0.955270   -0.231531   -2.012594
H       1.280937   -2.900795   -1.216288
H       3.376255   -2.275569    0.045888
H       2.908377   -0.519662   -0.053926
H       1.355912   -2.759353    1.454937
