19

C      -0.034076    1.631971   -0.000488
C       1.493680    1.429788   -0.085570
C       2.252939    1.522563    1.253021
C       2.267376    0.217309    2.070965
C       0.934521   -0.446145    2.362717
O      -0.226017    0.371097    2.533789
C      -0.180032   -0.521788    1.404227
C      -0.067641    0.092685    0.012207
O       1.293356    0.046675   -0.496670
H      -0.434710    2.146107    0.871590
H      -0.451036    2.044284   -0.920501
H       2.008239    1.997676   -0.866960
H       3.296638    1.797533    1.066459
H       1.820058    2.334362    1.847920
H       2.882814   -0.526040    1.552508
H       2.763402    0.419590    3.028382
H       1.005875   -1.255278    3.093022
H      -0.871923   -1.359331    1.493879
H      -0.755562   -0.407154   -0.676324
