16

C       0.026666    1.510487    0.043737
C       0.032566    0.002516    0.012982
C      -0.017620   -0.697071   -1.194061
C      -0.011244   -2.083044   -1.201345
F      -0.060237   -2.729973   -2.375507
C       0.044567   -2.811263   -0.022613
C       0.094890   -2.126024    1.185533
C       0.089182   -0.732400    1.207619
O       0.140788   -0.130295    2.434044
H       0.932265    1.915736    0.515176
H      -0.021640    1.922730   -0.966350
H      -0.835939    1.907147    0.596153
H      -0.062119   -0.164119   -2.137608
H       0.048186   -3.894125   -0.058329
H       0.139299   -2.659104    2.128121
H       0.131525    0.825004    2.323300
