18

C      -0.258689    1.606852   -0.086310
C      -0.009623    0.095031   -0.002496
C       1.220306   -0.362689   -0.887593
C       2.013305   -0.506263    0.390575
C       0.810930   -0.309644    1.285733
N       3.257557   -0.662249    0.561004
O       3.573549   -0.710471    1.931974
C      -1.232065   -0.659835   -0.215964
C      -2.242415   -1.288160   -0.392580
H       0.675905    2.154202    0.075729
H      -0.653441    1.881174   -1.068867
H      -0.980118    1.923568    0.672475
H       1.044655   -1.312801   -1.399164
H       1.579784    0.371042   -1.613664
H       0.902727    0.460115    2.056398
H       0.462617   -1.234953    1.752461
H       4.530694   -0.816837    1.915342
H      -3.134069   -1.843436   -0.548055
