16

O      -0.121707    1.331553    0.111928
N       0.016118   -0.055433   -0.064022
C      -1.112776   -0.627775   -0.104889
C      -2.549288   -0.242005    0.051912
C      -3.364122   -0.862484   -1.065114
C      -2.919698   -1.748989    0.055988
C      -1.447527   -2.099806   -0.132696
C      -0.792563   -3.252935   -0.752809
O      -0.776371   -3.048343    0.670095
H       0.795646    1.622376    0.154755
H      -2.924541    0.565772    0.664010
H      -4.414616   -0.588789   -1.057892
H      -2.937678   -0.971703   -2.058214
H      -3.593761   -2.272640    0.719900
H      -1.395368   -4.092359   -1.096915
H       0.167330   -3.121270   -1.248675
