21

C       0.042723    1.473441    0.111165
C       1.362423    0.762824   -0.039837
C       1.729444    0.099909    1.293737
C       0.409002   -0.720362    1.224221
O       0.719363   -2.088698    1.033358
C      -0.242340   -2.774872    0.245608
C      -0.277005   -2.230806   -1.184709
C      -0.694261   -0.749566   -1.177377
C       0.039996   -0.012837   -0.090813
H      -0.238550    1.911245    1.067930
H      -0.282247    2.051007   -0.749818
H       2.050278    1.001377   -0.842937
H       2.580891   -0.579545    1.236267
H       1.854055    0.773678    2.147569
H      -0.306847   -0.609099    2.054875
H       0.055353   -3.827392    0.260765
H      -1.243786   -2.703148    0.705391
H       0.724500   -2.340230   -1.616723
H      -0.967256   -2.824659   -1.794332
H      -0.524529   -0.282365   -2.154598
H      -1.775748   -0.686403   -0.986230
