19

O      -0.069276    1.429950   -0.040624
C       0.009489    0.011566    0.021365
C       0.744331   -0.511437    1.286620
C      -0.238885   -1.420425    2.108860
C      -1.428798   -0.531954    2.435836
C      -2.056213   -0.059286    1.361710
C      -1.460694   -0.530124    0.044575
C      -1.327192   -2.043677    0.071040
C      -0.691905   -2.507675    1.144764
H       0.828229    1.776479   -0.049690
H       0.498969   -0.373336   -0.883727
H       1.638673   -1.080539    1.016960
H       1.051939    0.342403    1.897708
H       0.250028   -1.820346    2.998296
H      -1.676898   -0.282670    3.460812
H      -2.888895    0.632439    1.382747
H      -2.001509   -0.158318   -0.825846
H      -1.699221   -2.654155   -0.743119
H      -0.476640   -3.552696    1.335127
