19

C       0.072390    1.490626   -0.140440
C       0.009560    0.004068    0.007215
O       0.615709   -0.847594   -1.040957
C       0.054827   -1.784251   -0.062749
C       0.586323   -0.932359    1.121543
C      -0.394597   -1.023681    2.282607
C      -1.748984   -0.973253    1.502219
O      -2.498867    0.213671    1.735219
C      -1.238252   -0.936180    0.072515
H       1.108886    1.841570   -0.126036
H      -0.384923    1.797308   -1.086140
H      -0.479714    1.962315    0.677012
H       0.166775   -2.851390   -0.257768
H       1.661180   -0.912701    1.300119
H      -0.273509   -1.947041    2.858971
H      -0.318956   -0.178919    2.974769
H      -2.368622   -1.859602    1.699675
H      -2.815405    0.194353    2.643860
H      -1.949776   -0.919063   -0.751627
