15

C       0.040500    1.355847    0.007489
O      -0.047407   -0.078090    0.002806
C      -1.286204   -0.581157    0.012215
O      -2.295878    0.080939    0.023963
C      -1.253518   -2.096281    0.005972
N      -2.606440   -2.594675    0.016554
C      -2.883073   -3.920720    0.007235
O      -2.042336   -4.796236   -0.008597
H       1.105477    1.584852   -0.000606
H      -0.449300    1.771632   -0.876099
H      -0.434393    1.764935    0.902262
H      -0.701080   -2.442442   -0.876130
H      -0.684510   -2.448986    0.874875
H      -3.338796   -1.899519    0.027137
H      -3.972669   -4.119097    0.015753
