17

C      -0.092734    1.584776    0.037195
C       0.002379    0.049238    0.015506
C       0.785547   -0.506157   -1.154227
C       1.819291   -1.259726   -0.781525
C       1.935284   -1.378322    0.717574
C       0.774341   -0.529657    1.197201
N       0.431262   -0.281303    2.395384
O       1.291720   -0.915814    3.312182
H       0.904117    2.036283    0.025551
H      -0.643852    1.951577   -0.834913
H      -0.609422    1.918082    0.940727
H      -1.022253   -0.350192    0.014314
H       0.508652   -0.285244   -2.179259
H       2.511258   -1.750066   -1.456793
H       1.846315   -2.410748    1.082190
H       2.889982   -1.010170    1.116351
H       0.920148   -0.646192    4.158725
