16

N      -0.049486    1.488854   -0.004378
C       0.022747    0.028746   -0.011336
C       0.679727   -0.510677   -1.220718
N       1.207545   -0.862286   -2.187100
C       0.739716   -0.461984    1.277579
C       0.021708    0.036171    2.562307
O       0.698811   -0.362466    3.727077
C       0.820434   -1.923091    1.320625
N       0.844287   -3.073931    1.425541
H       0.869049    1.885596   -0.184033
H      -0.655733    1.809960   -0.752466
H      -1.002964   -0.357018    0.007509
H       1.762977   -0.067567    1.286754
H       0.014584    1.126077    2.547249
H      -1.022312   -0.311541    2.543573
H       0.627054   -1.320274    3.812784
