17

N       0.018744    1.361327   -0.011614
C      -0.109663   -0.022656    0.021276
C      -1.202178   -0.838643   -0.008342
C      -0.711715   -2.185000   -0.029995
C       0.634739   -2.071015    0.021288
N       1.362760   -3.244966    0.202591
C       0.346427   -4.303156   -0.102966
C      -1.062971   -3.641489    0.099165
O       1.069525   -0.805234    0.049615
H       0.588082    1.718865    0.748836
H       0.407493    1.706779   -0.884230
H      -2.220812   -0.483622   -0.029630
H       2.198618   -3.324562   -0.365887
H       0.448271   -4.634327   -1.144296
H       0.500901   -5.167334    0.547006
H      -1.466208   -3.881894    1.092092
H      -1.780243   -4.021041   -0.635869
