15

C      -0.008768    1.466484    0.010506
C       0.007279    0.013813    0.002703
C       0.034099   -1.191906   -0.003809
C       0.037138   -2.618127   -0.011437
N       1.226109   -3.251483   -0.021645
C       1.184666   -4.581115   -0.028465
N       0.104238   -5.366124   -0.026407
C      -1.067681   -4.723506   -0.016227
C      -1.163312   -3.340539   -0.008331
H       1.007646    1.873359    0.003058
H      -0.535358    1.859019   -0.866423
H      -0.518589    1.849631    0.901392
H       2.147289   -5.087958   -0.036707
H      -1.962233   -5.342415   -0.014348
H      -2.119754   -2.833055   -0.000105
