18

C      -0.214076    1.562428    0.111602
C      -0.127980    0.046569   -0.071655
N      -1.349422   -0.678711    0.268146
C       0.553243   -0.504634   -1.358935
C       1.138054    0.409453   -2.415539
O       1.922138   -0.321853   -3.337522
O       1.644094   -1.073321   -0.533794
C       1.075764   -0.617932    0.621262
O       1.459333   -0.757073    1.738233
H       0.722665    2.075740   -0.123175
H      -1.000918    1.980229   -0.526395
H      -0.464778    1.785913    1.152871
H      -1.461486   -0.686180    1.278673
H      -2.160388   -0.195805   -0.110047
H      -0.008874   -1.322491   -1.813485
H       0.328313    0.873440   -2.989635
H       1.719959    1.214201   -1.942751
H       2.614156   -0.763342   -2.831504
