19

O       0.168424    1.301869   -0.055669
C      -0.009071   -0.079880    0.019694
C      -0.435001   -0.649317    1.350196
O      -0.680626    0.305862    2.354364
C      -1.406950   -0.662620    0.192115
C      -2.622928    0.215301    0.162303
C      -3.342652    0.401970   -1.194358
C      -4.579274   -0.131641   -0.447219
O      -3.793851   -0.439154    0.722804
H      -0.044762    1.644149    0.824357
H       0.702085   -0.615253   -0.602048
H      -0.039938   -1.597868    1.706406
H       0.116753    0.378846    2.890302
H      -1.568561   -1.641464   -0.252628
H      -2.432185    1.159977    0.680893
H      -3.394959    1.421474   -1.577925
H      -2.972312   -0.259771   -1.980142
H      -5.349132    0.622578   -0.235599
H      -5.064935   -1.022528   -0.862281
