15

C       0.029511    1.495909    0.068928
C      -0.030847   -0.040428   -0.011681
C       0.777138   -0.601840   -1.237367
N       2.007689   -1.043045   -0.574979
C       1.719329   -1.138348    0.770400
N       0.630530   -0.616701    1.189609
C      -1.433213   -0.480889   -0.066927
N      -2.535059   -0.819560   -0.145098
H       1.075802    1.813338    0.062124
H      -0.488357    1.952212   -0.779524
H      -0.433864    1.838749    0.995917
H       0.253056   -1.434296   -1.719957
H       0.972977    0.171868   -1.984021
H       2.570696   -1.758313   -1.010236
H       2.441570   -1.605645    1.433715
