17

N      -0.294496    1.587407   -0.107425
C      -0.042461    0.140048   -0.057266
C      -1.312971   -0.560197    0.202143
N      -2.302964   -1.132794    0.364786
C       0.637080   -0.450244   -1.276058
C      -0.062149   -0.837187   -2.567295
C       0.758789   -1.852230   -1.834102
O       2.147541   -1.699894   -2.132385
C       2.141910   -0.374093   -1.544715
H       0.594933    2.074481   -0.168279
H      -0.807789    1.810590   -0.956273
H       0.597148   -0.038094    0.817882
H      -1.136718   -0.966518   -2.478139
H       0.287720   -0.455652   -3.522674
H       0.408011   -2.815819   -1.484252
H       2.503101    0.393812   -2.238913
H       2.744289   -0.358409   -0.627484
