16

C      -0.020291    1.447870    0.057072
N      -0.014114   -0.008538    0.059190
C      -0.100862   -0.796278   -1.040057
N      -0.076627   -2.085773   -0.755612
C       0.034438   -2.134707    0.601329
C       0.080177   -0.864745    1.146171
C       0.180440   -0.377853    2.530563
N       0.400826   -1.350283    3.473247
O       0.047086    0.798810    2.834634
H       0.891065    1.836688    0.513337
H      -0.084345    1.781528   -0.980688
H      -0.868355    1.828318    0.626317
H      -0.179780   -0.373458   -2.031309
H       0.054449   -3.080150    1.124625
H       0.787152   -2.241097    3.210649
H       0.597383   -1.018991    4.404340
