19

C       0.090427    1.571491    0.092756
O       1.425169    1.945489   -0.261849
C       2.256798    0.803846   -0.033696
C       1.399714   -0.347410   -0.561631
C       0.015178    0.006835    0.023137
C      -0.195010   -0.636700    1.371705
C       0.682649   -0.592146    2.385735
C       1.969731    0.105118    2.422407
C       2.647735    0.701204    1.427675
H      -0.153635    1.924300    1.101580
H      -0.585328    2.057868   -0.618308
H       3.158573    0.956334   -0.634206
H       1.378668   -0.292795   -1.653781
H       1.748951   -1.337505   -0.262179
H      -0.787171   -0.301484   -0.650339
H      -1.126215   -1.176710    1.521104
H       0.409467   -1.092717    3.311489
H       2.417515    0.156785    3.413196
H       3.569901    1.214157    1.689364
