16

C      -0.072941    1.536841    0.021717
C      -0.025325    0.037099    0.007637
C       0.393011   -0.762212   -1.248865
C      -0.581551   -1.799492   -0.728789
C      -0.511787   -1.811278    0.763710
C       0.507744   -0.781560    1.206941
N      -1.366201   -0.790903    0.063781
H       0.940372    1.953395   -0.021982
H      -0.635598    1.918092   -0.836341
H      -0.553461    1.904031    0.934115
H       0.014912   -0.290354   -2.160242
H       1.449764   -1.022323   -1.375889
H      -1.085093   -2.582323   -1.285125
H      -0.961811   -2.603165    1.352167
H       1.571552   -1.042830    1.230788
H       0.216594   -0.324382    2.156909
