18

O       0.043280   -0.056322   -0.024352
C       0.008332    1.154020   -0.021712
C      -1.285313    1.958896    0.025084
C      -1.356641    3.021893   -1.078588
C      -1.123665    4.484468   -0.795219
C      -0.071786    3.684931   -1.525149
C       1.204088    3.279211   -0.838011
N       1.210223    3.271203    0.620174
C       1.261219    1.971409   -0.094777
H      -2.115959    1.255105   -0.051839
H      -1.333713    2.434387    1.011067
H      -2.065138    2.793891   -1.868060
H      -1.694316    5.216797   -1.355397
H      -0.894736    4.760870    0.227894
H       0.046650    3.863886   -2.588965
H       2.120380    3.580978   -1.340134
H       2.132886    3.499225    0.978803
H       2.182854    1.397950   -0.094626
