19

C      -0.006210    1.523370   -0.024985
C      -0.008562    0.011468    0.006807
C      -1.388135   -0.719805    0.005831
C      -0.925597   -1.515458    1.251471
O      -1.444528   -2.348916    1.935326
C       0.428800   -0.777433    1.291027
C       1.599517   -1.407038    0.495175
C       1.132467   -2.161654   -0.717524
C       1.160296   -0.659797   -0.767874
H       0.991723    1.919422    0.193926
H      -0.300719    1.897758   -1.012915
H      -0.702624    1.939245    0.711255
H      -2.224745   -0.056419    0.253397
H      -1.667636   -1.311460   -0.870085
H       0.702096   -0.274133    2.219764
H       2.592127   -1.546817    0.904169
H       1.928976   -2.641292   -1.278258
H       0.206690   -2.729761   -0.720818
H       1.770566   -0.131970   -1.492281
