19

C       0.019255    1.560290    0.006294
C       0.057118    0.024867    0.005736
C       0.734293   -0.528191   -1.271059
C       1.001186   -2.012134   -1.112875
O       0.520244   -2.862089   -1.822300
C       1.925606   -2.353136    0.065283
O       3.289463   -2.100968   -0.305234
C       1.532234   -1.573553    1.290406
C       0.718173   -0.515708    1.251182
H       1.032244    1.977361    0.017711
H      -0.491745    1.937055   -0.884938
H      -0.511226    1.940908    0.885184
H      -0.985093   -0.329463    0.006770
H       0.121129   -0.356560   -2.158260
H       1.695172   -0.015033   -1.410012
H       1.858196   -3.432068    0.234862
H       3.485962   -1.187639   -0.070896
H       1.969378   -1.897547    2.231726
H       0.486415    0.009113    2.176479
