19

C      -0.082634    1.572909    0.033703
C      -0.037416    0.032913   -0.032099
C      -1.383267   -0.527206    0.060745
C      -2.498252   -0.961092    0.173342
C       0.718744   -0.499125   -1.301466
C       0.725522   -2.036430   -1.332379
N       0.062199   -0.008337   -2.514535
C       2.126771   -0.027995   -1.214406
N       3.217247    0.357205   -1.187089
H       0.924610    1.993160   -0.036490
H      -0.702161    1.980261   -0.769637
H      -0.523829    1.890298    0.981107
H       0.541881   -0.323249    0.829864
H      -3.483102   -1.347662    0.265737
H      -0.301775   -2.392595   -1.422111
H       1.308390   -2.398118   -2.184436
H       1.170669   -2.442415   -0.420746
H       0.183446    0.994812   -2.610410
H       0.488907   -0.432300   -3.332760
