18

C       0.038353    1.516078   -0.043909
C       0.016629   -0.002989    0.100719
N      -1.339605   -0.524446    0.097557
C      -2.200159   -0.265504    1.273329
C      -2.664120   -1.722487    1.190647
O      -3.543006   -2.371979    1.658434
C      -1.496303   -2.000374    0.195478
C      -1.741142   -2.728521   -1.030645
C      -1.961434   -3.344064   -2.039008
H       1.068386    1.884180   -0.062092
H      -0.459273    1.820942   -0.968681
H      -0.473430    2.002510    0.793398
H       0.545946   -0.463521   -0.741108
H       0.558783   -0.299784    1.021601
H      -1.652637   -0.079411    2.213895
H      -2.960532    0.510712    1.144706
H      -0.674369   -2.475958    0.763838
H      -2.159503   -3.883577   -2.932097
