15

C      -0.013136    1.470717    0.089443
C       1.233599    1.947757   -0.007603
C       2.216529    0.782704   -0.035126
C       2.552139    0.586799    1.439066
C       1.701754   -0.299341    1.970981
C       0.860257   -0.880242    0.912415
C       0.003899    0.003666   -0.027163
N       1.368851   -0.414661   -0.388948
H      -0.915579    2.049848    0.237232
H       1.540767    2.981403    0.098227
H       3.068664    0.890520   -0.710360
H       3.253056    1.214029    1.976910
H       1.617896   -0.565131    3.016908
H       0.567324   -1.926042    0.972384
H      -0.810454   -0.503939   -0.539286
