19

C      -0.446272    1.404058    0.010853
C      -0.025845   -0.044033    0.020706
C      -0.303981   -0.942579    1.224177
C       1.110825   -0.608609    0.833028
O       1.840552   -1.558461    0.097842
C       1.072777   -1.925289   -1.046549
C       0.085508   -0.784973   -1.288780
C      -0.914416   -0.796356   -2.357222
O       0.266969    0.009704   -2.466846
H       0.141799    1.975867   -0.711298
H      -1.504216    1.510770   -0.256989
H      -0.314057    1.851810    1.000327
H      -0.706072   -0.449552    2.103165
H      -0.671333   -1.952095    1.072143
H       1.748506   -0.011566    1.474292
H       1.744654   -2.057198   -1.898784
H       0.544261   -2.872303   -0.865874
H      -0.967938   -1.640901   -3.044339
H      -1.846146   -0.246006   -2.233210
