18

N       0.215220    1.308358   -0.267710
C       0.028712   -0.061023   -0.091625
C      -1.113445   -0.838558   -0.028983
C      -0.631610   -2.132204    0.265939
N       0.687443   -2.174339    0.380488
N       1.084325   -0.884424    0.155732
C       2.453339   -0.486482    0.247061
C       3.504951   -1.471744   -0.152124
C       3.249131   -0.272166   -1.028500
H       1.049453    1.534025   -0.795727
H      -0.591989    1.756836   -0.678092
H      -2.131088   -0.516112   -0.178292
H      -1.203936   -3.040246    0.393266
H       2.663215    0.175928    1.082606
H       4.412047   -1.499149    0.439658
H       3.147699   -2.434880   -0.492012
H       2.733981   -0.443029   -1.967182
H       3.977824    0.530894   -1.043385
