15

O       0.126263    1.362179   -0.098344
C       0.017648   -0.021959   -0.004772
C       0.299624   -0.640597    1.388363
O      -0.805245   -0.042782    2.161624
C      -1.908429   -0.071256    1.344141
O      -2.988335    0.309259    1.684469
C      -1.431260   -0.641821   -0.000810
C      -1.074156   -2.090653    0.290117
C      -0.026875   -2.092761    1.123669
H      -0.271982    1.760348    0.686241
H       0.633252   -0.453539   -0.794512
H       1.227125   -0.383163    1.893466
H      -2.100105   -0.431176   -0.830504
H      -1.621099   -2.938175   -0.099826
H       0.478972   -2.938960    1.566438
