17

C      -0.533681    1.271838    0.099062
C       0.046093   -0.153012   -0.083965
C       0.973044   -0.195959   -1.216547
C       1.751206   -0.207378   -2.133077
C       0.698894   -0.653449    1.183501
C       0.169804   -0.963805    2.423463
C       1.282501   -1.344113    3.202000
N       2.418553   -1.280962    2.511749
N       2.034045   -0.856298    1.293876
H       0.264932    1.981214    0.329485
H      -1.038515    1.597672   -0.814056
H      -1.251789    1.279079    0.922643
H      -0.792436   -0.824661   -0.312067
H       2.418628   -0.226211   -2.959359
H      -0.867005   -0.923549    2.716752
H       1.301023   -1.662643    4.234100
H       2.713243   -0.746087    0.557976
