16

O      -1.026431    1.360082    0.273134
C       0.126871    1.060506    0.426209
C       1.296257    1.922874    0.014991
N       2.446088    1.440451    0.247538
C       3.695771    2.154385    0.074010
C       3.856182    3.016744   -1.175101
O       2.943175    4.103746   -1.203133
C       1.654353    3.733656   -1.540663
O       0.906293    3.115173   -0.494426
H       0.460898    0.112558    0.891221
H       3.831406    2.798746    0.954793
H       4.509114    1.419689    0.093566
H       4.858436    3.454911   -1.186463
H       3.735787    2.402696   -2.081287
H       1.098426    4.643545   -1.767659
H       1.657123    3.048967   -2.404092
