15

C      -0.004146    1.539450    0.023326
C       0.011043    0.038741   -0.012601
C      -0.047126   -0.666231   -1.164122
O      -0.123968   -0.112123   -2.383838
O      -0.036111   -2.019199   -1.241300
C       0.038761   -2.733609   -0.082684
C       0.101336   -2.154428    1.119267
C       0.092418   -0.689072    1.255807
O       0.148519   -0.123637    2.341087
H       0.897299    1.914092    0.518944
H      -0.066174    1.969926   -0.976879
H      -0.851686    1.894104    0.618729
H      -0.153380   -0.820153   -3.039237
H       0.039201   -3.796045   -0.286769
H       0.159906   -2.758194    2.015939
