18

C      -0.224806    1.577368    0.008440
C       0.024918    0.074089   -0.040121
C       0.884200   -0.489931   -1.179745
C       2.388360   -0.069922   -1.020309
C       2.621824   -1.374268   -0.246464
C       1.289319   -1.893361   -0.646027
N       1.556654   -1.622476    0.771643
C       0.819255   -0.449318    1.168851
O       0.859713    0.022888    2.269276
H       0.708576    2.141883   -0.078255
H      -0.888827    1.893655   -0.801193
H      -0.684057    1.846870    0.963170
H      -0.939857   -0.455925   -0.042104
H       0.458436   -0.406872   -2.178370
H       2.912939   -0.101424   -1.978123
H       2.612436    0.877074   -0.520042
H       3.563635   -1.884472   -0.085312
H       0.951972   -2.877546   -0.946115
