12

N       0.067834    1.406380   -0.155760
C      -0.002549    0.019416   -0.064612
C      -1.082327   -0.794596   -0.033244
O      -2.409461   -0.602542    0.080852
O      -0.601962   -2.119218   -0.001520
C       0.730713   -1.959330   -0.026876
O       1.481694   -3.061436   -0.016456
N       1.165404   -0.746311   -0.063393
H       0.937846    1.752499    0.227855
H      -0.722639    1.870127    0.272351
H      -2.832803   -0.680663   -0.784487
H       0.896192   -3.826111    0.038800
