19

C       0.110135    1.427481   -0.187252
C      -0.015217   -0.089105    0.050450
C       0.663633   -0.500326    1.282484
C       1.220583   -0.808639    2.302211
N      -1.412997   -0.537538    0.041944
C      -2.262717   -0.274897    1.190357
C      -1.865332   -1.176832   -1.091211
N      -3.183215   -1.615918   -1.035776
O      -1.187364   -1.309829   -2.098771
H       1.163212    1.721030   -0.202530
H      -0.342707    1.679605   -1.149270
H      -0.387879    1.998183    0.602144
H       0.443428   -0.602382   -0.799405
H       1.723673   -1.096856    3.192015
H      -3.232869    0.119010    0.872834
H      -2.425879   -1.169344    1.808550
H      -1.785039    0.470176    1.828054
H      -3.551764   -1.929819   -0.151411
H      -3.400639   -2.223429   -1.811204
