21

C       0.028551    1.467568   -0.051588
C      -0.106039   -0.041598   -0.165284
O       0.862142   -0.508123   -1.084495
C       0.869223   -1.901894   -1.254493
C      -0.275186   -2.471757   -2.164085
C       0.632638   -3.042030   -3.274485
C       1.741911   -3.785682   -2.496035
C       2.050767   -2.310669   -2.155714
O       1.575019   -1.946191   -3.487144
H       1.030511    1.737757    0.293704
H      -0.136488    1.940545   -1.023674
H      -0.703830    1.864058    0.658044
H       0.045606   -0.520061    0.817818
H      -1.120753   -0.312168   -0.499858
H       0.911844   -2.402071   -0.274529
H      -0.897866   -3.226764   -1.677129
H      -0.908093   -1.667306   -2.544620
H       0.176962   -3.421040   -4.189256
H       1.466748   -4.479780   -1.696731
H       2.494619   -4.212802   -3.158676
H       3.038858   -1.925946   -1.907016
