12

O       0.013621    0.020308    0.410119
C       0.040012    1.163295    0.055874
O      -1.158317    1.747377   -0.347615
N      -1.298633    3.051375   -0.783003
C      -0.225387    3.769050   -0.811380
C       1.074626    3.315264   -0.430118
C       1.229528    2.036271    0.000095
C       2.470369    1.487934    0.400207
C       3.530338    1.029093    0.738984
H      -0.382596    4.784837   -1.159336
H       1.919561    3.991630   -0.487429
H       4.458970    0.610194    1.041077
