14

N      -0.371364    1.271784    0.401735
C      -0.156382   -0.078008    0.114754
C      -1.057883   -1.018185   -0.316060
N      -0.361764   -2.213708   -0.392337
C       0.909274   -1.942115   -0.002513
N       1.065301   -0.672846    0.312423
O      -2.372375   -0.935632   -0.695590
C      -3.293596   -0.807406    0.315995
O      -4.454330   -0.687923    0.091881
H       0.513580    1.751533    0.508774
H      -0.939618    1.741715   -0.292117
H      -0.733800   -3.087723   -0.724716
H       1.678632   -2.697973    0.032851
H      -2.811544   -0.825826    1.309144
