15

O      -0.025129    1.455015   -0.448110
C      -0.071839    0.106032   -0.126042
C      -1.408249   -0.510799    0.187606
N      -2.547491    0.140346   -0.378548
C      -2.363208    0.237118   -1.729082
C      -3.307399    1.011103   -2.564973
O      -4.203308    1.673726   -2.097571
N      -1.360468   -0.416304   -2.224390
C      -0.625745   -0.921421   -1.101952
H       0.383150    1.543896   -1.316928
H       0.755624   -0.263273    0.478249
H      -1.567188   -1.127126    1.064581
H      -3.143618    0.783349    0.116990
H      -3.113463    0.929800   -3.651235
H      -0.100450   -1.859846   -1.234663
