11

C      -0.025849    1.487713    0.031067
C      -0.004592   -0.001809   -0.041243
N      -0.083322   -0.740228   -1.136292
C      -0.020090   -2.014588   -0.657390
N       0.092694   -2.121291    0.654396
N       0.100763   -0.817908    1.032314
H       0.890996    1.882721    0.481449
H      -0.114775    1.885161   -0.980265
H      -0.872382    1.850591    0.623707
H      -0.057839   -2.885542   -1.294484
H       0.178839   -0.583293    2.008229
