19

C       0.032056    1.517664   -0.022717
C       0.075315    0.008489   -0.027083
O      -0.806704   -0.645793    0.899245
C       0.625107   -0.741543    1.117484
C       1.262349   -2.063283    0.897771
C       1.060972   -2.735607   -0.235617
C       0.169202   -2.195114   -1.321342
C       0.153341   -0.655843   -1.397351
O      -0.889671   -0.202076   -2.253784
H       0.951467    1.931168   -0.451148
H      -0.805105    1.874421   -0.628596
H      -0.081473    1.893593    0.996786
H       0.961611   -0.171536    1.982070
H       1.891522   -2.459576    1.688397
H       1.513435   -3.711777   -0.384772
H       0.451623   -2.591548   -2.301085
H      -0.859701   -2.533871   -1.135966
H       1.077652   -0.310169   -1.877149
H      -1.723733   -0.459865   -1.843405
