22

C       1.795761    2.693506   -2.358818
C       1.904332    1.202888   -2.100633
C       3.140038    0.463300   -2.662030
C       3.509566    0.227148   -1.179695
O       2.305802    0.906771   -0.738304
C       3.560656   -1.203247   -0.719819
C       4.876662   -1.884579   -0.521672
N       4.012300   -1.601277    0.612135
C       4.437680   -0.589685    1.570530
H       2.748112    3.195246   -2.159134
H       1.513295    2.883552   -3.400457
H       1.033010    3.136995   -1.711196
H       0.948950    0.712131   -2.329869
H       2.922961   -0.444660   -3.228249
H       3.838953    1.082073   -3.227922
H       4.401683    0.774311   -0.852833
H       2.717903   -1.795954   -1.076727
H       5.005520   -2.930922   -0.786506
H       5.771178   -1.272676   -0.646163
H       5.111718    0.178118    1.160530
H       3.555228   -0.088684    1.978840
H       4.963346   -1.089247    2.390525
