22

C       3.125409   -1.151503    1.260927
N       1.853887   -1.177070    0.546278
C       0.765747   -1.890705    1.204158
C       0.738345   -0.397972    1.103490
C       0.924736    0.540480    2.266605
C      -0.263442    1.250920    2.870573
C       0.537429    0.293033    3.714131
C      -0.104740   -0.974196    4.205153
O       0.921275   -1.921913    4.494909
H       3.027890   -1.156672    2.356472
H       3.705717   -2.031700    0.965901
H       3.692966   -0.262912    0.963635
H       0.131019   -2.489405    0.554263
H       0.970479   -2.318705    2.182161
H       0.115891    0.026292    0.315513
H       1.806037    1.169651    2.159933
H      -0.198716    2.314632    3.070299
H      -1.247315    0.919681    2.549882
H       1.207418    0.736662    4.445980
H      -0.688910   -0.753532    5.111927
H      -0.803092   -1.362985    3.449703
H       0.514913   -2.684759    4.917846
