16

C       0.051074    1.319638   -0.241893
O      -0.061792   -0.004456    0.269883
C      -1.308727   -0.573290    0.096133
C      -1.663192   -1.174420   -1.248132
C      -1.335875   -2.092512   -0.083832
C      -0.108745   -2.829025   -0.048786
C       0.902731   -3.476694   -0.014924
C      -2.374254    0.018137    0.883746
N      -3.216152    0.506955    1.508219
H       1.081786    1.628943   -0.063218
H      -0.158650    1.349791   -1.319153
H      -0.629936    2.007059    0.275500
H      -2.690434   -1.129077   -1.588954
H      -0.902114   -1.071624   -2.012300
H      -2.184866   -2.583667    0.381828
H       1.802223   -4.039956    0.020138
