16

C      -0.041640    1.530844   -0.016034
C      -0.030641    0.043337   -0.029512
C       0.005848   -1.024273   -1.085844
C       1.259442   -1.584522   -0.442206
N       0.890145   -0.866130    0.841424
C      -0.366315   -1.611882    1.248038
C      -1.067344   -1.042329    0.029919
H       0.934904    1.939019   -0.299004
H      -0.785351    1.910218   -0.724914
H      -0.292428    1.918355    0.977574
H      -0.273178   -0.943482   -2.129696
H       1.384527   -2.668578   -0.336147
H       2.176092   -1.149489   -0.849641
H      -0.237938   -2.695883    1.350672
H      -0.744662   -1.198646    2.186971
H      -2.122458   -0.974596   -0.207059
