18

C      -0.004627    1.560343    0.041001
C       0.069230    0.052903    0.062036
O      -1.077758   -0.596242   -0.419825
C       1.326332   -0.734331   -0.162697
O       2.467120   -0.014225    0.367985
C       1.925273   -0.106075    1.653129
N       2.409406    0.223753    2.760547
C       0.667033   -0.784403    1.211283
C      -0.085718   -1.824945    1.984953
H       0.920378    2.014041    0.399533
H      -0.175655    1.915817   -0.982992
H      -0.834349    1.906076    0.664261
H      -1.219023   -0.307403   -1.328422
H       1.503729   -1.490898   -0.915823
H       3.340020    0.630783    2.653038
H      -0.488747   -1.390055    2.905220
H      -0.916836   -2.214018    1.395061
H       0.569602   -2.654008    2.268765
