19

C       0.478111    1.503106    0.220865
O       1.272410    0.385795   -0.193918
C      -0.100033    0.159892    0.115386
C      -0.401613   -0.704102    1.319607
C       0.096254   -2.145889    1.134721
C      -0.084951   -2.913358    2.445965
O       0.510047   -2.201248    3.523373
C      -0.019410   -0.910137    3.621485
O       0.205078   -0.133433    2.471955
H       0.715303    1.894515    1.205619
H       0.268581    2.239667   -0.553572
H      -0.722058   -0.074947   -0.750917
H      -1.499255   -0.714438    1.457793
H      -0.448841   -2.639644    0.322261
H       1.156711   -2.108893    0.868475
H      -1.158652   -3.068650    2.650266
H       0.398978   -3.892532    2.413099
H      -1.107966   -0.964492    3.822205
H       0.493099   -0.411361    4.446132
