18

O      -0.030381    1.498377   -0.014415
C       0.006687    0.095639    0.040248
C       0.141147   -0.645310    1.396475
C      -0.524547    0.155171    2.520740
C      -2.054019    0.171835    2.285055
C      -2.416129    0.170652    0.780440
C      -1.352305   -0.625470    0.014127
O      -0.779347   -1.652460    0.879755
H       0.865625    1.828134   -0.128440
H       0.687890   -0.328624   -0.706051
H       1.106850   -1.079832    1.670411
H      -0.299605   -0.283330    3.497853
H      -0.110718    1.169743    2.512301
H      -2.468980   -0.735954    2.729999
H      -2.518662    1.018568    2.798109
H      -3.405909   -0.272989    0.634168
H      -2.449298    1.186520    0.373236
H      -1.707566   -1.038852   -0.933356
