20

C       0.124452    1.543230   -0.040708
C       0.099167    0.032282    0.045001
C       1.338296   -0.805879   -0.155417
O       2.581714   -0.177646   -0.377297
C       3.191043    0.401900    0.687765
N       2.791820    0.535282    1.876863
C       1.498439   -0.009168    2.273772
C       0.701709   -0.754053    1.205543
C      -0.044549   -1.976404    1.700893
H       1.020185    1.973661    0.411827
H       0.089920    1.871398   -1.084907
H      -0.743757    1.972041    0.470730
H      -0.800129   -0.413938   -0.374615
H       1.281847   -1.713042   -0.747755
H       4.157157    0.795020    0.377499
H       1.687651   -0.698055    3.106241
H       0.908463    0.812472    2.702681
H      -0.792943   -1.700912    2.453723
H      -0.570506   -2.482433    0.884925
H       0.639051   -2.700225    2.159535
