19

C       0.308988    1.360774   -0.079975
C      -0.017810   -0.147090   -0.033738
C       0.659517   -0.870928   -1.247819
C       1.933054   -1.430912   -0.668672
C       1.936889   -1.409206    0.661492
C       0.668853   -0.821939    1.230715
O       0.862300    0.034714    2.340313
C      -1.464420   -0.335541   -0.017826
C      -2.656725   -0.492722   -0.000786
H       1.391843    1.516479   -0.147700
H      -0.153745    1.816310   -0.958995
H      -0.066989    1.866393    0.811185
H       0.018075   -1.674901   -1.628035
H       0.829499   -0.185499   -2.085936
H       2.720844   -1.839979   -1.292156
H       2.717991   -1.791785    1.309197
H       0.010379   -1.610357    1.612519
H       1.567204    0.652641    2.118679
H      -3.709111   -0.631832    0.017906
