13

N       0.313821    1.213415   -0.541783
C      -0.155124    0.264708    0.457267
C      -1.488214   -0.362891    0.156875
N      -2.254961   -0.162925   -0.867541
C      -3.354526   -0.988533   -0.647718
C      -3.183787   -1.650409    0.517481
O      -1.984858   -1.258652    1.049870
H       0.350975    0.747070   -1.444519
H      -0.387767    1.940018   -0.658446
H       0.590341   -0.531568    0.577779
H      -0.212662    0.765132    1.432232
H      -4.176696   -1.039385   -1.343359
H      -3.750772   -2.371899    1.079760
