14

N       0.028393    1.410705    0.167995
C      -0.004378    0.028557    0.062721
C      -1.141866   -0.706662    0.037371
O      -2.366752   -0.149756    0.048115
O      -1.193951   -2.058728   -0.006720
N      -0.028159   -2.811485   -0.028834
C       1.073275   -2.142697   -0.016906
C       1.246407   -0.693305    0.014558
N       2.366639   -0.050889   -0.005595
H       0.932848    1.771507   -0.111355
H      -0.753507    1.897498   -0.244612
H      -3.024145   -0.856393    0.016878
H       1.956996   -2.776775   -0.042406
H       3.159631   -0.691325   -0.049653
