20

C      -0.936933    0.449714   -0.029084
O      -0.696979   -0.552918    0.943879
C       0.633804   -0.606957    1.341529
C       1.122162   -1.885409    1.925791
C       1.664843   -1.432819    0.573460
C       1.373022   -2.176583   -0.678683
C       0.144493   -3.034891   -0.823351
N       2.272438   -2.044690   -1.584985
O       1.979139   -2.791384   -2.740471
H      -0.363596    0.267795   -0.947831
H      -2.004734    0.425199   -0.256854
H      -0.676013    1.447208    0.354416
H       1.004692    0.329087    1.763486
H       1.783130   -1.859697    2.784637
H       0.418599   -2.710243    1.920466
H       2.665128   -1.013305    0.571600
H      -0.677720   -2.642046   -0.225235
H      -0.151767   -3.095956   -1.871030
H       0.357904   -4.056275   -0.484906
H       2.718200   -2.563506   -3.313479
