16

C      -0.054206    1.338610   -0.052722
O      -0.005255   -0.078087   -0.020749
C       0.630321   -0.597177    1.047151
C       1.246319   -0.035203    2.119719
O       1.739779   -1.000624    2.929147
N       1.446345   -2.249276    2.383510
C       0.792440   -2.003173    1.274635
O       0.329623   -2.943433    0.450538
C       0.589639   -4.292852    0.846884
H       0.956796    1.767092   -0.080300
H      -0.591579    1.613460   -0.960923
H      -0.586489    1.734129    0.822903
H       1.411717    0.980129    2.438092
H       1.666501   -4.473717    0.919459
H       0.131133   -4.505804    1.817473
H       0.149149   -4.919668    0.071391
