20

C       0.039563    1.568347    0.026979
C       0.059713    0.044322    0.201669
C      -1.328966   -0.565058    0.067566
C      -2.028949   -0.751730   -1.323692
C      -1.095145   -1.969000   -1.584321
C      -1.550388   -2.105290   -0.102084
C      -2.990978   -1.774005   -0.625237
C      -4.000228   -1.291940    0.304884
N      -4.822480   -0.927039    1.031919
H       1.035815    1.995711    0.174278
H      -0.298598    1.848718   -0.976341
H      -0.636839    2.040659    0.747448
H       0.768637   -0.392943   -0.508628
H       0.443201   -0.201454    1.200476
H      -1.987701   -0.116247    0.818992
H      -2.335202    0.019064   -2.031360
H      -1.465964   -2.727019   -2.279261
H      -0.042201   -1.760350   -1.765004
H      -1.300578   -2.897710    0.604244
H      -3.427279   -2.525701   -1.288007
