15

N      -0.030529    1.277416   -0.113838
C       0.053543   -0.059855    0.156117
O       1.082720   -0.613678    0.467220
C      -1.304367   -0.763814    0.091485
O      -1.067768   -2.158449   -0.012972
C      -2.162319   -2.939975    0.024758
N      -3.336432   -2.458522    0.133524
C      -1.823798   -4.332693   -0.073920
C      -1.594490   -5.509681   -0.154281
H       0.821850    1.813228   -0.103386
H      -0.855444    1.698208   -0.504856
H      -1.879893   -0.542024    0.998169
H      -1.904172   -0.416004   -0.758048
H      -4.027149   -3.205225    0.149643
H      -1.382990   -6.548667   -0.224225
