20

C      -0.150342    1.578605    0.058383
C       0.006017    0.055969   -0.001401
N       0.725906   -0.498927    1.141091
C      -0.014455   -0.752351    2.378162
C      -0.553030   -2.182956    2.466487
C       2.055038   -0.810973    1.128280
O       2.640220   -1.295955    2.085875
C       2.775011   -0.526342   -0.109246
C       3.457217   -0.321403   -1.078749
H       0.829078    2.064846    0.038253
H      -0.729385    1.933739   -0.800062
H      -0.669960    1.894279    0.968397
H      -0.978151   -0.425183   -0.043035
H       0.535147   -0.227261   -0.913315
H       0.661226   -0.560447    3.214242
H      -0.833143   -0.027889    2.430221
H      -1.220522   -2.413528    1.629733
H       0.275117   -2.895545    2.459197
H      -1.116446   -2.317906    3.395215
H       4.065274   -0.145311   -1.932360
