20

C       0.759650    2.047344   -0.244663
N       1.460886    0.780054   -0.047039
C       1.452034   -0.082171   -1.187281
C       1.716048   -1.546305   -0.940093
N       1.961425   -2.080334    0.372781
C       0.294609   -1.106842   -1.298569
C      -0.799663   -1.175961   -0.244942
C      -0.132885   -1.401879   -2.640583
N      -0.470269   -1.633929   -3.723752
H       1.125889    2.624665   -1.109139
H      -0.305503    1.852737   -0.400690
H       0.863103    2.663811    0.652591
H       2.420219    0.954001    0.235730
H       1.780726    0.333777   -2.143465
H       2.244759   -2.082805   -1.720253
H       2.938191   -2.339797    0.459664
H       1.774180   -1.369474    1.073658
H      -0.470952   -0.691866    0.675234
H      -1.704425   -0.672439   -0.595977
H      -1.049311   -2.216425   -0.020495
