20

C      -0.046861    1.413298    0.100694
N       0.000870    0.005984   -0.215822
C      -1.183603   -0.837480    0.007843
C      -0.649837   -2.284612   -0.155399
C       0.856120   -2.098044   -0.014291
C       1.114475   -0.767855   -0.071928
C       1.891522   -3.118190    0.071518
C       1.427252   -4.569540    0.085511
O       3.082133   -2.841517    0.138673
H       0.922054    1.870509   -0.113437
H      -0.804125    1.914073   -0.511913
H      -0.291664    1.596001    1.159807
H      -1.567144   -0.664058    1.026052
H      -1.981719   -0.582139   -0.695834
H      -1.087728   -2.959066    0.586334
H      -0.913459   -2.687294   -1.142752
H       2.095468   -0.310972   -0.044836
H       0.846085   -4.803633   -0.814329
H       2.296827   -5.225477    0.138628
H       0.773592   -4.761349    0.944679
