18

C       0.167449    1.438056    0.127495
C      -0.159000   -0.030081   -0.187561
N       0.583757   -0.527757   -1.329600
C       1.752115   -1.026314   -1.172770
N       2.434235   -1.163401    0.061468
C       3.668826   -1.726173    0.175712
N       4.368407   -2.184564   -0.806238
C       3.771473   -2.073108   -2.053075
C       2.549197   -1.537542   -2.270687
H       1.214884    1.564239    0.423087
H      -0.000869    2.056375   -0.758420
H      -0.463809    1.813472    0.939563
H      -0.024324   -0.643444    0.724041
H      -1.225004   -0.107056   -0.429396
H       1.977347   -0.835746    0.898135
H       4.063712   -1.771625    1.188630
H       4.363871   -2.456874   -2.877960
H       2.115004   -1.472289   -3.259928
