21

C      -0.154225    1.436652    0.336317
C       0.067061   -0.038852    0.073607
C      -1.164267   -0.782075   -0.405238
C       1.417759   -0.483617   -0.446364
C       1.008275   -0.812481    0.969326
N       1.694443   -0.153375    2.042285
C       1.041611    0.032712    3.248325
N       1.883301    0.432314    4.282616
O      -0.149762   -0.152462    3.401099
H       0.760291    1.926212    0.678960
H      -0.489905    1.943963   -0.575457
H      -0.918627    1.576411    1.107546
H      -1.535646   -0.363232   -1.347816
H      -0.954674   -1.843293   -0.573143
H      -1.967029   -0.712288    0.336972
H       1.469930   -1.297529   -1.161879
H       2.180276    0.277831   -0.576447
H       0.719560   -1.842292    1.173842
H       2.691892   -0.302826    2.088256
H       2.684138    0.996097    4.038181
H       1.369638    0.781024    5.077973
