19

C       0.168064    1.552549   -0.134132
C       0.055917    0.057347    0.062078
O       0.873458   -0.697238   -0.872449
C       1.407938   -1.514090    0.200843
C       2.895478   -1.616581    0.256384
C       3.556441   -1.124976    1.301389
C       2.851050   -0.339442    2.375334
O       1.660114    0.272183    1.908885
C       0.764638   -0.606220    1.268703
H       1.197882    1.881847    0.010362
H      -0.152968    1.813424   -1.147340
H      -0.473557    2.082202    0.577789
H      -0.992490   -0.266993   -0.010551
H       0.957405   -2.517803    0.171129
H       3.401696   -2.137893   -0.550973
H       4.630468   -1.252822    1.405696
H       2.645909   -0.976467    3.254644
H       3.486696    0.481919    2.722630
H       0.118928   -1.105522    2.003591
