18

C      -0.075749   -1.183242   -0.423093
C      -0.003452   -0.016996   -0.142101
C       0.036010    1.398517    0.178818
O      -0.069780    1.683842    1.596477
C       1.214797    2.341706    1.621067
C       1.414482    2.133165    0.108221
N       2.548111    1.315294   -0.245278
C       2.932155    1.311639   -1.654160
C       3.758247    2.032075   -0.648302
H      -0.126592   -2.216974   -0.661075
H      -0.756723    1.920457   -0.373538
H       1.135752    3.380495    1.961373
H       1.942594    1.801559    2.236666
H       1.355279    3.061259   -0.482310
H       3.250736    0.351990   -2.048470
H       2.348575    1.918066   -2.345010
H       3.727837    3.120486   -0.664644
H       4.692813    1.608084   -0.293833
