19

C      -0.150812    1.349124    0.021976
O       0.123180   -0.040866    0.075605
C       0.627980   -0.593272   -1.106226
C       1.296182   -1.936175   -0.776807
C       1.742595   -2.644660   -2.054798
O       0.646280   -2.877143   -2.923772
C       0.038987   -1.678490   -3.368160
C      -0.426668   -0.796053   -2.203887
O      -1.524328   -0.295101   -2.175718
H       0.745307    1.917699   -0.273378
H      -0.967170    1.575919   -0.669962
H      -0.437555    1.649809    1.032326
H       1.393949    0.072564   -1.553472
H       2.145990   -1.764067   -0.108455
H       0.574339   -2.563811   -0.243514
H       2.519999   -2.055186   -2.571896
H       2.163834   -3.627506   -1.828291
H       0.736667   -1.093342   -3.996331
H      -0.828851   -1.947952   -3.972850
