19

C      -0.088089    1.366011    0.071598
O      -0.050214   -0.039675    0.009748
C       0.723165   -0.612619    1.044999
C       0.690345   -2.101372    0.893594
C       1.189888   -3.015201   -0.247563
C       0.603409   -4.020023    0.768929
C       1.056424   -3.157877    1.987991
O      -0.255019   -3.132421    2.624867
C      -0.528814   -3.036607    1.192999
H       0.916966    1.807237   -0.024913
H      -0.706949    1.713708   -0.759149
H      -0.527719    1.722307    1.016746
H       1.762165   -0.241413    1.001358
H       0.317298   -0.343173    2.034971
H       0.669136   -2.923050   -1.203584
H       2.272096   -3.054069   -0.403168
H       0.541064   -5.106896    0.728590
H       1.945088   -3.237720    2.614981
H      -1.562302   -2.961339    0.857262
