16

O       0.116909    1.353170    0.091577
C       0.072576   -0.020776    0.077242
C       0.952671   -0.741588    1.080162
C       0.587960   -2.190072    0.709420
O       0.999733   -3.209382    1.196081
C      -0.411642   -2.014847   -0.413217
C      -1.300503   -0.774469   -0.065653
N      -1.343707   -0.298615   -1.499822
C       0.064156   -0.805771   -1.285668
H      -0.496112    1.641528   -0.601513
H       2.020299   -0.546270    0.939936
H       0.699595   -0.515957    2.120683
H      -0.853893   -2.890067   -0.885451
H      -2.171449   -0.742335    0.591213
H      -1.872995   -0.958118   -2.074941
H       0.814440   -0.810826   -2.078196
