18

C      -0.020376    1.518215    0.057481
C      -0.007294    0.022149    0.019496
C      -0.024976   -0.783309   -1.067623
C      -0.002001   -2.255706   -0.682673
C       0.032353   -2.186874    0.819184
C       0.028171   -0.855538    1.181912
N       0.058886   -0.772152    2.546514
C       0.083370   -2.056569    3.058252
C       0.067101   -2.956502    2.007398
H       0.870772    1.914156    0.560896
H      -0.051219    1.939438   -0.950516
H      -0.890668    1.897579    0.607915
H      -0.052291   -0.442549   -2.095129
H      -0.883928   -2.782639   -1.071917
H       0.870717   -2.765921   -1.112808
H       0.063989    0.066891    3.098794
H       0.109884   -2.221949    4.123517
H       0.079561   -4.031101    2.110804
