23

C      -0.009486    1.603243    0.090814
C       0.036221    0.081419    0.262364
C      -1.320670   -0.577579    0.021314
C      -1.926375   -0.637920   -1.421105
C      -2.173607   -2.147390   -1.253307
C      -3.423467   -2.856236   -1.693330
C      -0.863441   -2.837915   -1.022001
O       0.351208   -2.428116   -1.593958
C      -1.462873   -2.102509    0.132662
H       0.970833    2.054966    0.272623
H      -0.317121    1.879752   -0.924002
H      -0.721343    2.063147    0.786534
H       0.773696   -0.355180   -0.416191
H       0.367812   -0.161772    1.281082
H      -2.061215   -0.112887    0.683519
H      -2.847287   -0.060132   -1.527965
H      -1.245843   -0.368635   -2.235270
H      -3.504551   -2.879153   -2.787823
H      -3.440698   -3.892444   -1.339266
H      -4.322363   -2.358919   -1.310459
H      -0.956508   -3.922100   -0.927572
H       0.315521   -2.625551   -2.536119
H      -1.712870   -2.628372    1.048851
