19

C      -0.025329    1.510606   -0.162590
C       1.536092    1.512957    0.123135
C       1.337504    0.152974    0.852665
O       1.056531    0.352386    2.231451
C       0.020617   -0.609907    2.487442
C      -0.168033   -1.200033    1.100835
C       1.308444   -1.364760    0.492652
C       0.747128   -0.997593   -0.893500
C       0.027632   -0.023053    0.072886
H      -0.572385    2.046212    0.615843
H      -0.364073    1.854497   -1.142829
H       2.130605    1.450882   -0.788987
H       1.927935    2.312126    0.753443
H       0.355934   -1.350625    3.224612
H      -0.871363   -0.104548    2.877694
H      -0.908694   -1.989208    0.954026
H       2.003667   -2.171148    0.748408
H       1.452457   -0.567493   -1.608780
H       0.116273   -1.745464   -1.380840
