22

C      -0.130757    1.582118    0.333562
C       0.160867    0.082153    0.299743
C       1.089962   -0.625175   -0.756260
C       1.377526   -1.712801    0.353740
C       2.454680   -0.753108    0.733875
N       2.494059   -0.165407   -0.593846
C       2.910077    1.211370   -0.812033
C       1.017406   -0.628962    1.351939
C       0.753886   -0.761212    2.822524
H      -0.418276    1.953134   -0.656850
H      -0.967448    1.787744    1.010788
H       0.718031    2.174892    0.679440
H      -0.796104   -0.453829    0.246982
H       0.745045   -0.788578   -1.777488
H       1.315995   -2.791419    0.367910
H       3.334771   -0.903491    1.349146
H       4.004585    1.256306   -0.769211
H       2.608723    1.520015   -1.818677
H       2.518334    1.946171   -0.095914
H       0.818354    0.208736    3.329529
H      -0.243429   -1.173181    3.018799
H       1.483209   -1.427599    3.297029
