22

C      -0.003323    1.351069    0.317574
O      -0.083324   -0.051357    0.385912
C      -1.316021   -0.555371   -0.080891
C      -1.264739   -2.076590    0.003760
C      -2.606161   -2.772619   -0.314510
C      -3.072489   -2.556204   -1.760367
C      -2.423019   -4.273533   -0.059827
N      -2.914172   -4.727906    1.130854
O      -1.864493   -5.006034   -0.853767
H       0.980187    1.642509    0.694364
H      -0.110911    1.718391   -0.715699
H      -0.777522    1.836823    0.933614
H      -2.147472   -0.162858    0.533096
H      -1.495326   -0.219034   -1.115077
H      -0.493757   -2.455858   -0.675029
H      -0.946932   -2.339771    1.019610
H      -3.369875   -2.382967    0.372686
H      -3.199842   -1.494230   -1.985622
H      -2.342483   -2.982456   -2.452836
H      -4.030548   -3.053655   -1.939576
H      -3.317541   -4.113946    1.815696
H      -2.737558   -5.686648    1.383897
