20

C       0.017146    1.500174   -0.152843
C       0.010691   -0.022598    0.026803
C       0.778221   -0.446090    1.304207
C       2.186804   -0.058597    1.280696
N       3.298758    0.254049    1.241665
C      -1.412328   -0.575009    0.079119
C      -2.250671   -0.518561   -1.219362
O      -2.466207   -1.942997   -1.198401
C      -1.615737   -2.104190   -0.048003
H       1.037956    1.888195   -0.208001
H      -0.500937    1.786834   -1.072804
H      -0.488204    1.995855    0.684392
H       0.522566   -0.479009   -0.830947
H       0.308658    0.004692    2.187500
H       0.725212   -1.532663    1.437733
H      -1.942059   -0.150079    0.938245
H      -3.191860    0.040933   -1.172194
H      -1.693627   -0.201679   -2.112127
H      -0.705231   -2.672393   -0.288981
H      -2.133762   -2.602700    0.779697
