23

C       0.214583    1.378657   -0.486040
C      -0.031949    0.154186    0.414427
C      -1.397488   -0.354713    0.327201
C      -2.530750   -0.752452    0.227333
C      -3.900566   -1.256324    0.137399
C      -3.941562   -2.744000   -0.262343
C      -4.638191   -1.009312    1.463438
O      -5.989728   -1.375135    1.294529
C      -6.753785   -1.210085    2.464110
H       1.248170    1.724238   -0.387988
H       0.031342    1.131474   -1.535218
H      -0.451868    2.201371   -0.213104
H       0.672869   -0.643777    0.146956
H       0.194147    0.415799    1.456317
H      -4.438698   -0.681495   -0.628929
H      -3.400253   -3.352077    0.469530
H      -4.977216   -3.087585   -0.304810
H      -3.474257   -2.894706   -1.238764
H      -4.169762   -1.602427    2.267237
H      -4.555174    0.052174    1.746385
H      -7.776812   -1.517742    2.233940
H      -6.373629   -1.829551    3.291994
H      -6.765331   -0.161042    2.800445
