17

O       0.006427    1.401961    0.034070
C      -0.023983    0.003055   -0.008968
C      -1.468283   -0.484371    0.021323
O      -2.406380    0.277593    0.074701
C      -1.646878   -1.960256   -0.020423
C      -2.832800   -2.573694   -0.003353
C      -2.647894   -4.055723   -0.056506
O      -1.238638   -4.259624   -0.106657
C      -0.557583   -3.008767   -0.087718
H       0.926132    1.682156    0.016023
H       0.445686   -0.408634   -0.921084
H       0.501339   -0.464173    0.844104
H      -3.791335   -2.073698    0.042340
H      -3.072673   -4.560015    0.826417
H      -3.127409   -4.503434   -0.941898
H       0.066406   -2.914478   -0.990578
H       0.121187   -2.971095    0.779039
