19

O      -0.132199    1.455787    0.300429
C       0.003984    0.052543    0.116876
C      -1.380239   -0.514882   -0.109683
C      -2.261070   -0.584519    1.162337
O      -2.184126   -2.027404    1.209171
C      -1.511774   -2.062843   -0.077793
C      -2.412583   -2.380705   -1.238968
C      -2.722579   -1.286336   -1.935956
C      -2.077104   -0.029579   -1.397216
H       0.739017    1.826314    0.469083
H       0.644157   -0.177220   -0.751242
H       0.459062   -0.423040    1.000209
H      -1.837773   -0.122624    2.061004
H      -3.291050   -0.231031    1.026750
H      -0.608301   -2.683234   -0.023383
H      -2.763185   -3.384823   -1.448338
H      -3.366140   -1.271080   -2.810057
H      -2.808965    0.762802   -1.199689
H      -1.360278    0.395421   -2.112277
