21

C      -0.078047    1.536099    0.068008
C       1.293827    2.224500    0.028951
C       1.969893    2.283741   -1.346324
C       2.179536    0.951093   -2.046786
O       2.701357   -0.120633   -1.198875
C       1.724243   -1.021780   -1.728814
C       0.341140   -0.623547   -1.325274
C      -0.019733    0.000620    0.020637
C       1.014254    0.069444   -2.500665
H      -0.580503    1.824076    0.999616
H      -0.710695    1.908495   -0.749009
H       1.189822    3.253410    0.393597
H       1.964607    1.714210    0.729999
H       1.383096    2.913705   -2.029923
H       2.943925    2.777830   -1.237478
H       2.873420    1.087228   -2.887724
H       2.054560   -2.019346   -1.996535
H      -0.391713   -1.337679   -1.697631
H       0.692300   -0.345558    0.779796
H      -0.998562   -0.392042    0.318049
H       0.598357    0.067120   -3.499613
