23

C      -0.940011    1.416260   -0.771245
C      -1.004941   -0.110663   -0.892107
C       0.198346   -0.675237   -1.615848
N       1.466692   -0.765541   -0.863736
C       0.820439   -1.999802   -1.332378
C       0.325691   -2.952418   -0.271960
C      -0.853108   -3.806703   -0.688092
C       1.332564   -3.485790    0.683308
N       0.329675   -2.498795    1.126324
H      -0.048935    1.719969   -0.213144
H      -0.896345    1.892368   -1.757535
H      -1.817985    1.809884   -0.250504
H      -1.085879   -0.562760    0.100029
H      -1.908741   -0.401928   -1.443156
H       0.285696   -0.336397   -2.649160
H       2.261948   -0.521698   -1.445686
H       1.266772   -2.500452   -2.192279
H      -0.604499   -4.420861   -1.561586
H      -1.149054   -4.470435    0.127780
H      -1.715881   -3.184632   -0.949534
H       1.214633   -4.484648    1.095609
H       2.361928   -3.152240    0.577302
H       0.787275   -1.587107    1.148289
