21

C      -0.128539    1.563537    0.039217
C       0.009683    0.044380    0.001226
C       0.950084   -0.504451   -1.090185
C       2.348932    0.007711   -0.688802
C       2.752668   -1.352723   -0.189568
C       2.284024   -0.295968    0.801243
C       0.800023   -0.604421    1.173596
C       0.674213   -2.100757    0.798939
C       1.382224   -1.952354   -0.559674
H       0.845374    2.052320    0.140296
H      -0.598909    1.940459   -0.875843
H      -0.749780    1.879487    0.884285
H      -0.988312   -0.406020   -0.070607
H       0.640771   -0.419086   -2.130923
H       2.941365    0.796468   -1.135436
H       3.720883   -1.837547   -0.165211
H       2.981075    0.162710    1.489587
H       0.499497   -0.318006    2.181874
H       1.226682   -2.765602    1.470851
H      -0.365699   -2.438192    0.739643
H       1.347203   -2.780805   -1.264779
