21

C      -0.079657    1.571316    0.228466
C      -0.001547    0.047439    0.034737
C       0.860630   -0.602765    1.125199
C      -1.396532   -0.541065   -0.017080
C      -1.767258   -2.059774    0.123320
C      -3.068213   -1.346123    0.588069
O      -2.223016   -0.313300    1.187570
C      -3.526438   -0.662265   -0.714879
C      -2.385660   -0.113523   -1.131532
H       0.922113    2.011518    0.234503
H      -0.655943    2.051857   -0.567938
H      -0.566263    1.808650    1.179097
H       0.458524   -0.156989   -0.942886
H       0.379791   -0.499841    2.102724
H       1.016947   -1.668990    0.935599
H       1.843767   -0.124626    1.174511
H      -1.798410   -2.677587   -0.776554
H      -1.240611   -2.551803    0.943982
H      -3.797190   -1.786517    1.266748
H      -4.515529   -0.666701   -1.148663
H      -2.156599    0.469452   -2.011838
