9

O      -0.029511   -0.044638   -0.000429
C      -0.009438    1.159030    0.008471
C       1.219917    1.972295    0.002130
C       1.400181    3.323995    0.010480
N       2.754850    3.545320   -0.001427
N       3.373553    2.445947   -0.016561
O       2.424336    1.395645   -0.014348
H      -0.933220    1.772380    0.022610
H       0.685563    4.129561    0.023869
