25

C      -0.730050    1.177533   -0.115265
C      -0.086021   -0.205283   -0.108908
C       1.099527   -0.533259   -1.074178
C       1.858448    0.641560   -1.669241
O       2.971651    0.108067   -2.375828
C       1.826559   -1.250087    0.097048
C       0.786885   -0.677664    1.115046
C       1.359632    0.452157    1.974977
C       0.108602   -1.717332    2.006246
H      -0.003284    1.982474    0.027687
H      -1.247258    1.363338   -1.063202
H      -1.475371    1.263369    0.683469
H      -0.877488   -0.945912   -0.269927
H       0.827049   -1.191887   -1.904331
H       1.198971    1.213037   -2.342464
H       2.194260    1.332664   -0.880004
H       3.482839    0.842136   -2.728594
H       1.794558   -2.340217    0.021742
H       2.866969   -0.950649    0.251721
H       1.867288    1.215541    1.377993
H       0.576784    0.951438    2.557403
H       2.094418    0.051055    2.682746
H       0.812307   -2.133408    2.737288
H      -0.726758   -1.278200    2.565505
H      -0.287441   -2.549908    1.414813
