16

O      -0.083076    1.306953    0.107427
N       0.003279   -0.089859    0.164803
C      -1.132974   -0.625894    0.015731
C      -2.549506   -0.173795   -0.261054
C      -2.898989   -1.658007   -0.583358
C      -1.487348   -2.120372   -0.054351
O      -0.743145   -2.944362   -0.882030
C      -1.565759   -2.711814    1.341685
O      -0.996214   -3.736854    1.624637
H       0.839686    1.572897    0.190405
H      -3.057107    0.231004    0.620421
H      -2.658384    0.547123   -1.074751
H      -3.772322   -2.083388   -0.084372
H      -2.956031   -1.863181   -1.652904
H      -0.405016   -3.656857   -0.314446
H      -2.171120   -2.152687    2.082344
