16

C      -0.003458    1.452978    0.026723
C       0.015393   -0.000597    0.009728
C       0.039978   -1.205868   -0.004436
C       0.031939   -2.619274   -0.020217
N       1.153433   -3.364413   -0.032199
N       0.703030   -4.609190   -0.056788
C       1.598812   -5.747104   -0.013868
N      -0.619260   -4.753514   -0.054849
C      -1.068722   -3.501436   -0.034292
H       1.014062    1.858306    0.036467
H      -0.513768    1.855107   -0.855686
H      -0.522332    1.834194    0.913405
H       1.913807   -5.950714    1.014085
H       1.064942   -6.609921   -0.410120
H       2.475981   -5.526341   -0.622572
H      -2.123460   -3.280414   -0.037987
