20

C       0.006350    1.450300    0.242429
C      -0.071455   -0.036152   -0.124834
C       0.761004   -0.426691   -1.322180
O       0.826468   -1.871961   -1.513451
C       2.278549   -1.843182   -1.528739
C       2.285896   -0.312282   -1.475964
N       2.156940    0.491130   -2.760028
C       1.355692   -0.269904   -3.741162
C       0.635853    0.377128   -2.635047
H       1.038844    1.759646    0.434977
H      -0.388159    2.090342   -0.552126
H      -0.575158    1.650526    1.146721
H       0.251996   -0.650059    0.723337
H      -1.112257   -0.321032   -0.330233
H       2.694488   -2.314369   -0.629001
H       2.704922   -2.327371   -2.414669
H       2.947448    0.193611   -0.774511
H       1.330561    0.226108   -4.706801
H       1.403014   -1.351834   -3.788947
H      -0.005376    1.241912   -2.775674
