23

C       0.099152    1.361326   -0.039593
O      -0.023570   -0.042013   -0.003255
C      -1.349076   -0.574350    0.044483
C      -2.083197   -0.138580    1.321414
C      -2.174391   -0.241682   -1.235385
C      -3.057492   -1.480251   -1.501381
C      -2.269197   -2.648769   -0.925874
C      -0.804615   -2.738095   -1.273324
C      -1.228490   -2.093804    0.020323
H       1.162405    1.578479   -0.173423
H      -0.452995    1.811374   -0.877730
H      -0.234267    1.843894    0.890335
H      -2.265417    0.939833    1.339794
H      -3.054255   -0.638713    1.387335
H      -1.499160   -0.406125    2.207467
H      -2.766124    0.671535   -1.130681
H      -1.476915   -0.080638   -2.062776
H      -4.013211   -1.390031   -0.971384
H      -3.294022   -1.597985   -2.564866
H      -2.798788   -3.566998   -0.696006
H      -0.339542   -3.715070   -1.200678
H      -0.397042   -2.115493   -2.062177
H      -0.982908   -2.588312    0.953780
