19

C       0.065961    1.484658   -0.030666
C      -0.001664   -0.011196    0.039196
C      -1.321404   -0.788003   -0.143750
C      -0.718125   -2.108634    0.376437
C      -1.413523   -3.426955    0.216798
O      -0.416111   -1.733350    1.766238
C       0.615343   -0.922052    1.212535
C       0.813072   -1.805299   -0.011510
O       0.856491   -0.714556   -0.926434
H       1.092542    1.835432    0.109596
H      -0.288684    1.845969   -1.001718
H      -0.563021    1.926069    0.748778
H      -2.143524   -0.461760    0.496875
H      -1.620103   -0.797281   -1.194184
H      -1.557135   -3.649893   -0.845120
H      -0.827351   -4.233811    0.666208
H      -2.396758   -3.409902    0.698690
H       1.357556   -0.530996    1.906597
H       1.529888   -2.608978   -0.172139
