18

C      -0.596793    1.412485   -0.005162
C       0.030211    0.035421   -0.035102
O       1.181548   -0.056670   -0.918579
C       1.992666   -0.683513    0.092333
C       2.855134    0.341673    0.865720
C       1.725359    0.491312    1.934505
C       0.845672   -0.518088    1.151830
O       0.159235   -1.511840    1.844617
H       0.128442    2.181620    0.275178
H      -0.989210    1.665741   -0.995021
H      -1.429708    1.434783    0.705771
H      -0.719814   -0.715512   -0.320829
H       2.437848   -1.625043   -0.239487
H       3.785527   -0.066761    1.268669
H       3.081084    1.234823    0.280785
H       2.017916    0.090787    2.911202
H       1.309506    1.488669    2.096655
H       0.696029   -1.798401    2.590617
