12

O      -0.016643    1.265360    0.009227
C       1.216281    1.759130   -0.000052
C       2.114536    0.722429   -0.014485
C       3.514052    0.499688   -0.029336
N       3.988238   -0.717395   -0.040593
C       3.078440   -1.756985   -0.037399
N       1.773730   -1.708947   -0.024477
C       1.274031   -0.442022   -0.012693
N      -0.013269   -0.128888    0.001522
H       1.298729    2.835220    0.005047
H       4.226775    1.322758   -0.031739
H       3.532216   -2.744703   -0.047300
