17

C      -0.019522    1.467866    0.135134
C       1.330139    0.793114   -0.012785
O       2.151882    0.423417    1.053131
C       2.306302   -1.007872    1.065565
C       0.918490   -1.737458    0.895713
O      -0.055303   -0.729556    1.161145
C       0.043052   -0.010561   -0.054063
C      -0.019337   -1.074609   -1.118399
C       0.569781   -2.131317   -0.555086
H      -0.351738    1.789357    1.116032
H      -0.318484    2.106206   -0.689629
H       1.853316    0.968570   -0.953318
H       3.013823   -1.323129    0.285314
H       2.737723   -1.241659    2.041448
H       0.810079   -2.549713    1.617333
H      -0.369929   -0.951141   -2.133149
H       0.798304   -3.087927   -1.004619
