20

O       0.087723    1.118911   -0.585921
C       0.038733   -0.118470    0.106010
C      -1.422502   -0.600050    0.115741
C      -1.557694   -2.028750    0.663307
C      -2.900919   -2.666163    0.374073
C      -3.118852   -3.399253   -0.898451
N      -3.041604   -4.130536    0.380999
C      -2.276597    0.407084    0.870562
O      -3.008754    0.131523    1.789035
H       0.971596    1.486461   -0.494741
H       0.659969   -0.879694   -0.390407
H       0.405298   -0.018219    1.139973
H      -1.756803   -0.564358   -0.932183
H      -0.769186   -2.653118    0.221424
H      -1.389170   -2.013690    1.746809
H      -3.745652   -2.154629    0.825261
H      -4.096403   -3.406516   -1.372188
H      -2.283107   -3.474535   -1.591098
H      -2.123993   -4.562896    0.468880
H      -2.165003    1.452682    0.518381
