18

O       0.255045    1.192048   -0.397911
C       0.158214   -0.169613   -0.081866
C       0.163990   -0.537284    1.385919
N       0.917882   -0.225368    2.339391
O      -1.010884   -1.241938    1.331827
C      -1.251375   -0.827783   -0.060136
C      -2.489433    0.018369   -0.384811
C      -2.628249   -0.804563   -1.699723
C      -1.682389   -1.879851   -1.087746
H       0.576496    1.647214    0.388844
H       0.872392   -0.753715   -0.676690
H       0.573787   -0.585116    3.231220
H      -3.298705   -0.187609    0.320491
H      -2.327879    1.094538   -0.461950
H      -3.631500   -1.131139   -1.976465
H      -2.176031   -0.293298   -2.552321
H      -0.903734   -2.315981   -1.718888
H      -2.240357   -2.685167   -0.602238
