17

N      -0.127812   -1.176022   -0.091578
C      -0.073543   -0.023470   -0.021001
C       0.001641    1.429665    0.029885
C      -0.248388    2.122878    1.387734
N       0.818525    1.678976    2.305721
C       1.087903    2.776307    1.341670
C       1.413205    2.100026    0.026614
C       2.712279    1.526257   -0.434163
C       2.090531    2.695011   -1.169099
H      -0.633147    1.853890   -0.753435
H      -1.202311    2.483271    1.749130
H       0.625481    2.104785    3.212249
H       1.391286    3.761216    1.673917
H       3.589823    1.705058    0.177516
H       2.687851    0.552081   -0.910959
H       1.655418    2.514622   -2.146938
H       2.546250    3.673998   -1.058757
