18

O       0.910317   -1.658075    0.107245
C       0.177119   -0.672675    0.818461
C      -1.288487   -0.746845    0.421420
C      -2.389003    0.234692    0.924038
C      -2.083539    1.426945    1.789352
O      -1.027907    1.654814    2.325656
C      -2.635771    0.564730   -0.559569
C      -1.394728    1.048996   -1.192360
N      -1.577748   -0.408518   -1.030828
H       0.713319   -1.537641   -0.828754
H       0.286603   -0.899097    1.882791
H       0.593000    0.330718    0.663877
H      -1.614388   -1.780116    0.565718
H      -3.239138   -0.295608    1.366272
H      -2.938811    2.136292    1.887107
H      -3.609769    0.625396   -1.032777
H      -1.451408    1.357858   -2.231027
H      -0.651237    1.577441   -0.601747
