17

C      -0.208287    1.555347   -0.006622
C       0.105101    0.067294   -0.042596
O       1.237041   -0.357648   -0.157911
N      -0.998202   -0.750016    0.053204
C      -0.979737   -2.148316    0.018119
C       0.041902   -3.058887   -0.132746
C      -0.554343   -4.353363   -0.086096
C      -1.904671   -4.196789    0.089715
N      -2.159962   -2.841068    0.152591
H       0.449097    2.031576    0.724396
H       0.022166    1.989170   -0.984268
H      -1.247230    1.787451    0.243409
H      -1.897437   -0.304964    0.135423
H       1.078881   -2.806415   -0.258301
H      -0.035406   -5.295325   -0.174481
H      -2.706642   -4.911035    0.174920
H      -3.067715   -2.432536    0.289175
