21

C      -0.157158    1.556972    0.035660
C       0.022294    0.032336   -0.015184
C       0.824502   -0.458691   -1.207451
C       1.819666   -1.271907   -0.852734
C       1.895476   -1.421592    0.634331
O       2.194964   -2.666499    1.190565
C       2.217583   -0.146683    1.386217
C       0.768796   -0.568924    1.187889
C      -0.028460   -0.995792    2.395890
H       0.807819    2.070737    0.084212
H      -0.684438    1.918613   -0.853451
H      -0.742182    1.852188    0.912750
H      -0.984402   -0.412233   -0.055962
H       0.598995   -0.142213   -2.220410
H       2.520681   -1.759434   -1.521507
H       3.148110   -2.718462    1.314675
H       2.596098   -0.263470    2.398030
H       2.631662    0.691099    0.834781
H      -0.430441   -0.130949    2.936947
H      -0.873604   -1.629604    2.104203
H       0.590959   -1.572303    3.088083
