19

C       0.384440    1.641884   -0.139263
O       1.697298    1.355797    0.403961
C       1.338517   -0.016848    0.665947
C      -0.015916    0.161630   -0.079528
C       0.504308   -0.766702   -1.227573
C       1.005066   -0.179799   -2.557492
C       2.482757    0.180176   -2.275575
O       2.918625   -0.688789   -1.226899
C       1.818310   -1.026558   -0.426116
H      -0.191739    2.282579    0.540947
H       0.435119    2.126595   -1.120788
H       1.461201   -0.287128    1.718885
H      -0.988281   -0.087680    0.341934
H      -0.134905   -1.637573   -1.378274
H       0.945564   -0.945916   -3.335860
H       0.428958    0.682767   -2.903362
H       3.133436    0.004001   -3.137438
H       2.589089    1.225079   -1.965148
H       1.970668   -2.035573   -0.030031
