17

C      -0.044911    1.526923   -0.090870
C      -0.008223    0.017494    0.031052
O      -1.260636   -0.408490    0.744951
C      -0.446443   -0.446982    1.987135
C       0.750372   -0.747402    1.051919
O       2.014276   -0.274144    0.373083
C       1.195466   -0.619119   -0.851239
C       1.017065   -2.111512   -0.712959
C       0.702976   -2.206266    0.577851
H       0.905129    1.924266   -0.451188
H      -0.829184    1.784542   -0.812493
H      -0.297670    2.021484    0.850832
H      -0.454307    0.518459    2.499053
H      -0.769173   -1.251447    2.652646
H       1.587539   -0.160450   -1.759335
H       1.109714   -2.855084   -1.489635
H       0.452889   -3.056837    1.195115
