11

O      -0.026904   -0.107780    0.003704
C       0.008010    1.092135    0.005511
O       1.097672    1.859673   -0.002895
C       2.353424    1.124443   -0.015291
C       3.444930    2.077252   -0.019263
C       4.372002    2.838958   -0.022845
C      -1.195642    1.931617    0.018045
N      -2.175803    2.541777    0.028089
H       2.384912    0.474018    0.864674
H       2.371881    0.481753   -0.901315
H       5.190746    3.516203   -0.025990
