15

C       0.635308    0.934207    0.314079
N      -0.401641    0.359167   -0.543094
C       0.103271   -0.486027   -1.594649
C       0.582835   -1.870263   -1.137862
O       0.389382   -2.301182   -0.023498
C       1.260111   -2.669408   -2.151132
C       1.825033   -3.299396   -3.016659
C       2.463003   -4.016796   -3.986594
N       3.005757   -4.623292   -4.815305
H       1.284890    0.192977    0.803401
H       1.264897    1.603653   -0.282585
H       0.158008    1.536078    1.091857
H      -1.051517   -0.173366    0.026153
H      -0.673542   -0.667083   -2.353921
H       0.922467    0.015308   -2.125396
