19

C       0.056009    1.533356    0.117347
C      -0.026988    0.027353   -0.140317
C      -1.422526   -0.537021    0.123501
N      -1.458432   -1.967622   -0.152868
C      -2.636363   -2.669850   -0.033230
N      -2.622851   -3.954440    0.270778
O      -3.964639   -4.359938    0.231937
C      -4.723799   -3.304819   -0.072967
C      -3.968911   -2.194444   -0.255290
H       1.064876    1.909757   -0.073761
H      -0.633107    2.085656   -0.530867
H      -0.198579    1.775209    1.154903
H       0.254306   -0.199436   -1.175044
H       0.696798   -0.494870    0.500195
H      -1.727328   -0.305826    1.158226
H      -2.143301   -0.039941   -0.536569
H      -0.670228   -2.482109    0.218180
H      -5.786290   -3.488328   -0.128615
H      -4.298650   -1.202775   -0.512306
