21

C      -0.011087    1.593000   -0.003939
C       1.469438    1.910745   -0.013566
C       2.209022    0.849862    0.342476
C       1.355342   -0.304166    0.613467
C       1.625317   -1.423257    1.292807
C       0.563292   -2.431673    1.650930
C      -0.802940   -2.146080    0.994056
C      -1.117127   -0.641659    0.914277
C      -0.030768    0.044683    0.087258
H      -0.493448    2.053709    0.871353
H      -0.540976    1.973608   -0.884048
H       1.856438    2.899917   -0.230625
H       3.285678    0.843008    0.469958
H       2.628829   -1.601612    1.674145
H       0.893928   -3.445895    1.388965
H       0.453985   -2.444120    2.746709
H      -0.804404   -2.552738   -0.025473
H      -1.591293   -2.676149    1.538977
H      -2.108768   -0.483744    0.474601
H      -1.140667   -0.208534    1.923229
H      -0.096896   -0.335545   -0.943255
