17

C       0.064289    1.387417    0.440970
C      -0.036394   -0.016868   -0.180927
C      -1.425913   -0.554439   -0.158959
N      -2.221836   -0.773598   -1.162439
C      -3.346806   -1.237842   -0.528324
O      -4.409676   -1.579038   -1.241376
C      -5.531613   -2.052990   -0.489004
N      -3.276214   -1.309201    0.780553
O      -1.969135   -0.844603    1.031539
H       1.099185    1.738165    0.410867
H      -0.555402    2.102374   -0.107527
H      -0.265442    1.377919    1.482993
H       0.288928   -0.004680   -1.223340
H       0.614484   -0.709504    0.364376
H      -5.882822   -1.283492    0.204981
H      -6.303056   -2.284902   -1.222873
H      -5.263387   -2.948171    0.079992
