19

C      -0.016614    1.350261   -0.769015
C      -0.013324    0.005652   -0.078161
C       1.225156   -0.778015    0.023713
O       0.719960   -0.046732    1.150366
C      -1.350234   -0.716609   -0.044026
C      -1.635445   -1.668894    1.105589
C      -2.322985   -0.336750    1.066540
C      -1.890158   -1.037626   -1.338184
C      -2.323953   -1.302704   -2.428976
H       0.979465    1.798023   -0.741635
H      -0.332302    1.243958   -1.810642
H      -0.716053    2.030914   -0.272540
H       1.169241   -1.861520    0.111633
H       2.148417   -0.389251   -0.402745
H      -2.212024   -2.556385    0.875209
H      -0.838496   -1.794156    1.828461
H      -1.982496    0.420694    1.764021
H      -3.376056   -0.297551    0.815998
H      -2.711550   -1.538984   -3.388715
