14

O       0.050057   -0.054949   -0.164048
C       0.035021    1.149999   -0.075136
N      -1.072232    1.947006    0.089609
C      -0.830672    3.388890    0.104617
C      -1.391241    4.061450    1.273957
C      -1.873073    4.622900    2.219657
C       0.702254    3.461307    0.023057
O       1.352134    2.826413    1.110195
C       1.219655    2.098366   -0.127238
H      -1.961455    1.550808    0.350456
H      -1.243815    3.852992   -0.803386
H      -2.286814    5.115888    3.064926
H       1.173341    4.349927   -0.383598
H       2.135707    1.818233   -0.634106
