20

C      -0.053329    1.567249    0.229705
C      -0.036771    0.056273    0.007513
O       0.844296   -0.607896    0.912982
C      -1.428112   -0.554116    0.072989
C      -1.831432   -1.677754   -0.818800
N      -2.348068   -0.325182   -1.071152
C      -3.688937   -0.063710   -0.498610
C      -3.526988   -0.183806    1.001541
C      -2.256338   -0.436759    1.313165
H       0.959428    1.973069    0.157652
H      -0.685062    2.053781   -0.518639
H      -0.456918    1.814217    1.219648
H       0.368354   -0.153115   -0.988311
H       0.681333   -0.254685    1.793809
H      -1.144962   -2.041730   -1.579662
H      -2.506214   -2.426612   -0.409285
H      -4.020738    0.939994   -0.796753
H      -4.422557   -0.771255   -0.906272
H      -4.352585   -0.100526    1.699052
H      -1.858082   -0.572346    2.311478
