20

C      -0.022782    1.383345    0.068238
O      -0.018819   -0.033799    0.050047
C      -1.280976   -0.605410    0.050493
C      -1.140536   -2.112672   -0.132814
C      -2.513637   -2.791907   -0.019949
C      -3.223962   -2.354410    1.268992
C      -3.230352   -0.827544    1.368019
O      -1.915340   -0.300360    1.285694
H       1.019231    1.702914   -0.000384
H      -0.578644    1.789836   -0.790602
H      -0.465385    1.773298    0.990725
H      -1.899438   -0.175197   -0.767219
H      -0.672006   -2.317234   -1.100511
H      -0.463642   -2.475212    0.648901
H      -3.130589   -2.512612   -0.885281
H      -2.403980   -3.880499   -0.055188
H      -4.252099   -2.732856    1.299681
H      -2.698092   -2.761190    2.141214
H      -3.859976   -0.402760    0.566007
H      -3.635746   -0.486790    2.324947
