18

C      -0.003944    1.422802   -0.105960
N       0.005228   -0.016240   -0.061798
C      -1.070069   -1.014638   -0.048556
C      -1.835926   -1.212416   -1.373797
C      -1.038863   -2.283018   -2.086029
C      -0.051338   -2.782569   -1.340969
C       0.050064   -2.109896   -0.002455
C       1.044082   -0.908594    0.039686
O       2.234562   -0.756229    0.118750
H       1.035398    1.758713   -0.073387
H      -0.465937    1.800912   -1.025950
H      -0.539634    1.849372    0.751425
H      -1.719155   -0.930771    0.828401
H      -2.870718   -1.531369   -1.194511
H      -1.897218   -0.280833   -1.950538
H      -1.267059   -2.593469   -3.099939
H       0.640138   -3.556204   -1.652687
H       0.102698   -2.775106    0.862108
