13

N      -0.220325    1.266801    0.403200
C      -0.111790   -0.079519    0.090949
C      -1.058365   -0.971928   -0.301686
O      -2.361982   -0.857212   -0.655205
C      -3.296143   -1.086984    0.334713
O      -4.459915   -1.011665    0.119875
O      -0.465081   -2.207137   -0.435777
C       0.817598   -1.980541   -0.100141
N       1.093191   -0.755882    0.219206
H       0.674362    1.735080    0.352001
H      -0.924181    1.757643   -0.131477
H      -2.814325   -1.328002    1.298364
H       1.486337   -2.826170   -0.126096
