15

O      -0.540849    0.086486   -0.272902
C      -0.287866    1.224830   -0.008402
C      -1.105959    2.529088    0.074096
N       0.170757    3.318360   -0.087642
C       0.949972    3.013453    1.105708
C       0.987632    2.018267   -0.005942
C       2.213819    1.723545   -0.839347
C       3.292998    1.114352   -0.060707
N       4.141052    0.646492    0.568548
H      -1.759417    2.647121   -0.793623
H      -1.657933    2.752551    0.990471
H       1.840483    3.624546    1.222685
H       0.438158    2.771952    2.034670
H       1.947467    1.052426   -1.663375
H       2.577639    2.657459   -1.282059
