10

F       0.084372    0.089525    0.002120
C      -0.052360    1.386957    0.011273
N      -1.189671    1.936056    0.029646
C      -1.270120    3.346662    0.038411
O      -2.316167    3.942716    0.056039
C       0.046802    4.018144    0.024304
F       0.066290    5.338317    0.031330
C       1.184877    3.316920    0.005003
O       1.163261    1.945777   -0.002223
H       2.186097    3.721307   -0.006351
