22

C      -0.056103    1.651979    0.015837
C       0.061151    0.131893   -0.000803
C       1.149221   -0.532543   -0.917532
C       1.715018   -1.262834    0.302081
C       2.151587   -0.277815    1.333359
C       0.669840   -0.579465    1.217423
N       2.247230   -2.581954    0.206041
C       2.110508   -3.463194    1.358705
C       1.294281   -3.689397    0.133933
H       0.901124    2.129386    0.249500
H      -0.385470    2.031154   -0.958036
H      -0.783623    1.982269    0.765604
H      -0.917491   -0.301925   -0.230782
H       0.717009   -1.210372   -1.657435
H       1.844048    0.144562   -1.426093
H       2.625867   -0.716140    2.206670
H       2.561842    0.690680    1.053402
H       0.110303   -0.955364    2.067053
H       2.970102   -4.089924    1.577572
H       1.584493   -3.086076    2.233828
H       0.234362   -3.451717    0.200765
H       1.548195   -4.484509   -0.560704
