18

C       0.123126    1.443139   -0.033135
C      -0.087116   -0.025915   -0.015065
C      -1.172671   -0.829524   -0.212992
C      -0.699745   -2.181824   -0.126653
C       0.619105   -2.073648    0.141777
N       1.307501   -3.245505    0.447214
C       0.348101   -4.303918   -0.008300
C      -1.073332   -3.636275   -0.045278
O       1.047556   -0.804827    0.223074
H       0.811693    1.752293   -0.829611
H      -0.833069    1.944597   -0.201574
H       0.536711    1.809957    0.914135
H      -2.172217   -0.476248   -0.417781
H       2.221192   -3.330986    0.015628
H       0.616324   -4.646957   -1.015600
H       0.390836   -5.161393    0.667048
H      -1.635103   -3.867291    0.869775
H      -1.661819   -4.020010   -0.885137
