20

C       0.085877    1.349043   -0.475935
C      -0.004251   -0.007295    0.231818
C      -1.390716   -0.612923    0.159443
C      -2.000024   -1.246079   -1.109007
C      -0.969728   -2.110558   -1.748801
N      -0.541347   -2.275638   -2.915642
O      -0.639380   -2.780869   -0.570141
C      -1.705554   -2.068970    0.136327
C      -2.548296   -2.876345    1.064074
H       1.091960    1.770037   -0.388698
H      -0.147059    1.248791   -1.540575
H      -0.616422    2.071846   -0.045839
H       0.718904   -0.705332   -0.199381
H       0.269390    0.105111    1.288802
H      -2.155162   -0.042658    0.688117
H      -2.927590   -0.916036   -1.553873
H       0.160110   -3.017758   -2.946129
H      -1.957815   -3.222160    1.919593
H      -3.375152   -2.271311    1.446602
H      -2.959998   -3.753038    0.555363
