18

C      -0.206250    1.621374   -0.051976
C      -0.060665    0.113901   -0.090082
C       0.888592   -0.577445   -1.071392
C       2.094715   -0.222304   -0.152298
C       2.595196   -1.679829   -0.074154
C       3.348628   -2.112508    1.084115
C       3.997567   -2.486623    2.024450
C       1.054651   -1.735010   -0.045569
N       0.961298   -0.492919    0.878078
H       0.752400    2.132097   -0.183048
H      -0.880081    1.961923   -0.845498
H      -0.628894    1.937087    0.907349
H      -1.038480   -0.371060    0.027241
H       0.872010   -0.644132   -2.165257
H       2.686991    0.691529   -0.115241
H       3.037675   -2.049858   -1.005214
H       4.558774   -2.808807    2.866199
H       0.399978   -2.593202    0.113470
