20

C      -0.028979    1.443837   -0.357884
C       0.043096   -0.032394   -0.055499
N       1.357923   -0.662935   -0.141982
C       0.700622   -0.599458    1.166215
C       1.253201   -0.010743    2.488120
C       0.844682    1.394040    2.913389
C       0.570134   -1.195771    3.258719
C       0.185708   -1.806420    1.900985
O      -0.263145   -2.858226    1.533409
H       0.878022    1.953474   -0.027023
H      -0.126377    1.597391   -1.438047
H      -0.893486    1.907092    0.127811
H      -0.805399   -0.618373   -0.409537
H       1.281785   -1.615504   -0.497951
H       2.342779   -0.109230    2.509498
H      -0.241045    1.527567    2.854601
H       1.147981    1.581780    3.948851
H       1.312693    2.159781    2.288222
H       1.213626   -1.820117    3.883450
H      -0.304140   -0.897136    3.847126
