21

C       0.268235    0.453711    1.577446
O       0.200851   -0.822161    0.989910
C       0.789245   -0.866149   -0.292154
C       0.698009   -2.299969   -0.800189
C       1.217399   -2.446551   -2.234789
O       2.580161   -2.046993   -2.237355
C       3.146497   -1.937665   -3.526827
C       1.041187   -3.819447   -2.730113
C       0.899601   -4.944680   -3.128591
H       1.309017    0.792498    1.703733
H      -0.265341    1.209868    0.978835
H      -0.203120    0.387495    2.561212
H       0.261133   -0.180997   -0.980366
H       1.839023   -0.540358   -0.252707
H       1.272384   -2.961577   -0.145012
H      -0.344877   -2.629481   -0.767290
H       0.643245   -1.770548   -2.894296
H       3.146373   -2.900641   -4.054475
H       2.607357   -1.201070   -4.142909
H       4.177128   -1.601596   -3.393143
H       0.771747   -5.938324   -3.481543
