17

O       0.034550    1.395309    0.107310
C       0.030094   -0.010500   -0.070818
C      -1.364767   -0.562569   -0.003173
O      -2.196509   -0.005331   -0.998059
C      -3.478800   -0.625015   -0.746408
C      -3.149590   -1.514246    0.439133
C      -1.706127   -2.070249    0.222109
O      -1.399260   -1.948714    1.649170
C      -2.149246   -0.727696    1.339745
H      -0.585263    1.753584   -0.538308
H       0.492039   -0.299156   -1.028097
H       0.617828   -0.447221    0.740565
H      -4.225485    0.144950   -0.520088
H      -3.800774   -1.178325   -1.636006
H      -3.911735   -2.145506    0.891197
H      -1.373835   -2.964350   -0.305405
H      -2.336492   -0.016338    2.142834
