14

C      -0.101664    1.332226   -0.195866
N      -0.034424   -0.031885    0.284253
C      -1.061377   -1.071085    0.185601
C      -0.972302   -1.795955   -1.122871
C       0.023273   -2.111567   -0.003669
C       1.005807   -0.944209    0.067592
O       2.189687   -0.783761   -0.046180
H       0.920691    1.713776   -0.253805
H      -0.561168    1.400797   -1.191853
H      -0.670808    1.962187    0.494901
H      -1.905086   -1.093412    0.862751
H      -1.712129   -2.570717   -1.305261
H      -0.638708   -1.271562   -2.013652
H       0.122631   -3.092053    0.438158
