17

C       0.245029    1.222473    0.607419
C      -0.206721    0.363118   -0.587806
C      -1.515848   -0.248078   -0.390762
C      -2.596566   -0.744899   -0.201633
C      -3.898570   -1.326895    0.014993
C      -4.235661   -2.633740   -0.611390
O      -3.923855   -2.565567    0.767872
C      -4.967305   -0.402298    0.317846
C      -5.852133    0.373272    0.559462
H       1.229042    1.657793    0.410472
H      -0.462550    2.035305    0.790510
H       0.309092    0.619249    1.516709
H      -0.231067    0.977795   -1.496801
H       0.532784   -0.425308   -0.777108
H      -5.276564   -2.839772   -0.855217
H      -3.488471   -3.106993   -1.246216
H      -6.632753    1.058873    0.779911
