17

C       0.064200    1.482869    0.028948
C      -0.090938    0.003533    0.021262
C      -1.159404   -0.827951   -0.110589
C      -0.595445   -2.133439   -0.027115
N       0.705343   -2.079529    0.150677
O       1.029666   -0.725548    0.175895
C      -1.284800   -3.438690   -0.119589
C      -0.789067   -4.462158   -1.089853
N      -0.605525   -4.656021    0.349267
H       0.726985    1.811165   -0.778288
H      -0.906860    1.963870   -0.100774
H       0.500374    1.825522    0.972860
H      -2.193234   -0.558131   -0.249005
H      -2.348555   -3.403409    0.099584
H      -1.496678   -5.138372   -1.561973
H       0.069852   -4.185777   -1.694494
H       0.347863   -4.407682    0.607901
