19

C       0.741484    1.452103   -0.077949
O       1.463385    0.228697    0.132742
C       0.053994    0.163680   -0.009346
C      -0.845977   -0.444050    1.072848
C      -1.449953   -1.410032    0.004420
C      -2.941271   -1.224717   -0.346602
C      -2.914293   -0.233776   -1.488218
C      -1.679667    0.045223   -1.908433
C      -0.623695   -0.672247   -1.112608
H       0.712294    2.128896    0.775665
H       0.907602    1.931671   -1.042285
H      -0.289675   -0.924814    1.881040
H      -1.569664    0.252492    1.507170
H      -1.178661   -2.452432    0.172996
H      -3.417834   -2.165957   -0.651928
H      -3.520728   -0.856365    0.510678
H      -3.821651    0.182274   -1.913912
H      -1.437146    0.723289   -2.719873
H       0.079062   -1.252481   -1.718693
