21

C      -0.034745    1.585501   -0.160400
C      -0.035263    0.057091   -0.042921
C      -1.415695   -0.516505    0.087421
O      -2.383321   -0.265417   -1.003919
C      -3.110782   -1.077416   -0.022145
C      -1.882698   -2.005705    0.187912
C      -1.824984   -2.466138    1.639624
C      -2.303949   -1.165367    2.362152
C      -2.528710   -0.255390    1.159943
H       0.980240    1.966655   -0.305256
H      -0.647208    1.903778   -1.008224
H      -0.443905    2.052382    0.741411
H       0.439760   -0.388853   -0.925611
H       0.555442   -0.262740    0.825330
H      -4.146839   -1.335259   -0.244794
H      -1.606158   -2.683584   -0.619596
H      -2.485553   -3.317704    1.830052
H      -0.815949   -2.765819    1.939754
H      -3.220112   -1.321302    2.940191
H      -1.551314   -0.766040    3.049295
H      -2.883124    0.765704    1.297997
