15

C      -0.058959    1.418455    0.018421
C       1.362012    2.087992    0.045323
C       2.205271    1.532906   -1.127300
C       2.809388    0.101648   -1.371547
O       2.255801   -0.967599   -0.543402
C       1.020928   -0.342126   -0.764161
N       0.245130   -0.015214    0.170067
C       1.508754    0.481117   -1.958249
H      -0.680269    1.747787    0.853322
H      -0.569573    1.681557   -0.918825
H       1.281662    3.176380   -0.058969
H       1.820241    1.883068    1.017094
H       2.759881    2.280645   -1.691889
H       3.788518   -0.075668   -1.796783
H       1.127994    0.535341   -2.968112
