18

C      -0.107642    1.555490   -0.091069
C       0.009899    0.052143   -0.007469
C       0.632129   -0.775342   -1.098313
N       1.374984   -0.029624   -2.163081
H       2.176558    0.401629   -1.654396
H       1.725580   -0.648245   -2.895589
H       0.805291    0.703550   -2.590141
C       1.328943   -0.642961    0.230552
O       2.542249    0.085661    0.124040
C      -1.206311   -0.731058    0.674172
O      -2.006788   -0.004369    1.267610
O      -1.126595   -1.963542    0.507132
H       0.848459    2.094727   -0.048335
H      -0.634898    1.876160   -0.999846
H      -0.740132    1.852993    0.749965
H       0.152683   -1.690871   -1.418150
H       1.360632   -1.509510    0.880778
H       2.539334    0.781177    0.791344
