20

C       0.006711    1.377754    0.060797
O      -0.038936   -0.036897   -0.017005
C      -1.311707   -0.561890    0.039314
C      -2.374652   -0.512862    1.136675
N      -3.037088   -1.413334    0.098970
C      -2.444607   -0.563997   -1.046745
C      -1.896043   -1.804747   -1.752968
C      -1.653529   -2.051406   -0.254967
C      -1.148429   -3.282903    0.434313
H       1.057803    1.668352    0.007128
H      -0.537477    1.845496   -0.771648
H      -0.416697    1.745261    1.005744
H      -2.169536   -1.010617    2.089334
H      -2.918383    0.422969    1.299577
H      -3.010017    0.281194   -1.441514
H      -2.635059   -2.453313   -2.231571
H      -1.009152   -1.667650   -2.375264
H      -0.121313   -3.497250    0.121362
H      -1.151343   -3.164419    1.522671
H      -1.772484   -4.146379    0.183342
