15

O      -0.090180    1.454023   -0.098866
C       0.048312    0.044265   -0.096236
C      -1.347953   -0.538748    0.146480
C      -1.354131   -2.027529    0.182119
C      -1.635288   -2.944995    1.148302
C      -1.428844   -4.190054    0.498158
N      -1.054224   -4.044158   -0.748170
O      -1.005704   -2.666162   -0.952714
H       0.768911    1.841440   -0.289714
H       0.438504   -0.330544   -1.053209
H       0.731250   -0.296074    0.697751
H      -1.735393   -0.156763    1.094824
H      -2.012934   -0.178459   -0.646689
H      -1.944092   -2.760507    2.163487
H      -1.541645   -5.188797    0.896254
