17

C      -0.009684    1.526536    0.118248
C       0.103870    0.009511   -0.006644
C       0.729369   -0.464704   -1.289127
N       1.123724    0.375543   -2.185406
C       1.693608   -0.121202   -3.349070
C       1.841059   -1.435621   -3.558706
O       1.440333   -2.352347   -2.642913
C       0.862711   -1.929725   -1.457682
N       0.476909   -2.760550   -0.580622
H       0.972331    2.003809    0.065891
H      -0.616380    1.946975   -0.687993
H      -0.472405    1.790262    1.073511
H       0.681649   -0.416488    0.823919
H      -0.878448   -0.472237    0.083605
H       2.016998    0.601894   -4.086830
H       2.274361   -1.896323   -4.436919
H       0.654480   -3.719830   -0.881347
