21

C       0.033777    1.544129   -0.065077
C       0.073488    0.025996    0.034467
O       0.811261   -0.493866   -1.086269
C       1.253848   -1.812959   -0.744823
C       1.528351   -1.770403    0.746027
C       2.274098   -0.547057    1.221424
O       3.041313    0.257865    0.375815
C       0.762175   -0.553576    1.268500
C       0.013281   -0.537925    2.578104
H       1.037713    1.966277    0.024792
H      -0.399746    1.852893   -1.020435
H      -0.585840    1.955500    0.737684
H      -0.957124   -0.368628   -0.002575
H       0.479725   -2.559368   -0.978803
H       2.134835   -2.023544   -1.360127
H       1.580727   -2.704760    1.294930
H       2.768872   -0.634123    2.184078
H       2.577011    0.297416   -0.472106
H      -0.177382    0.486271    2.919247
H      -0.955030   -1.046179    2.491426
H       0.582255   -1.043435    3.364282
