18

C       0.056352    1.396747   -0.440160
C      -0.052201   -0.038591    0.093322
O       0.500743   -0.118147    1.378849
C      -1.489295   -0.553833    0.113341
O      -1.959052   -0.987187    1.146803
C      -2.294449   -0.535735   -1.170156
N      -3.550708   -1.212227   -0.974989
C      -4.402396   -1.450019   -2.002920
O      -4.198320   -1.113954   -3.151041
H       1.096748    1.719406   -0.358700
H      -0.243464    1.465522   -1.489889
H      -0.559168    2.077132    0.155720
H       0.496198   -0.705571   -0.597417
H      -0.169788   -0.547763    1.931956
H      -2.443245    0.509029   -1.479168
H      -1.716544   -0.999435   -1.980313
H      -3.755534   -1.516828   -0.034382
H      -5.311628   -1.990365   -1.675458
