20

C      -0.514397    1.479051    0.240462
C       0.025051    0.070351    0.035978
C      -1.050234   -0.842455   -0.561413
N       1.323661    0.016800   -0.700836
C       1.846274   -1.033038    0.196028
C       0.788661   -0.593148    1.264024
N       1.225958    0.384295    2.253962
C       0.097156   -1.680930    1.950764
N      -0.434472   -2.559162    2.482015
H       0.248198    2.156037    0.626601
H      -0.863891    1.878044   -0.718265
H      -1.358021    1.476803    0.936986
H      -1.363230   -0.448588   -1.534803
H      -0.688180   -1.864381   -0.706295
H      -1.934433   -0.891503    0.081154
H       1.246431   -0.249998   -1.677256
H       1.701168   -2.064512   -0.149030
H       2.890980   -0.901492    0.498005
H       1.782215   -0.074982    2.969547
H       1.828642    1.064118    1.799468
