21

C      -0.297063    1.663028   -0.091344
C       0.036866    0.169899    0.079935
C       0.783212   -0.386516   -1.043271
C       1.405747   -0.821933   -1.979468
C       2.149212   -1.346074   -3.111851
O       3.551324   -1.597254   -2.825081
C       3.434941   -2.989025   -3.182669
C       1.935333   -2.844290   -3.516346
C       0.956802   -3.678661   -2.707216
H       0.616141    2.255702   -0.190811
H      -0.903535    1.825441   -0.986476
H      -0.855173    2.030548    0.774949
H       0.615518    0.025534    1.001386
H      -0.890552   -0.401314    0.216755
H       2.056109   -0.655179   -3.960768
H       4.092531   -3.253076   -4.019981
H       3.659137   -3.648025   -2.333326
H       1.724820   -2.940504   -4.584401
H       1.146903   -3.580329   -1.634542
H      -0.076317   -3.367816   -2.891762
H       1.043401   -4.737148   -2.975794
