17

C      -1.073833    1.202400    0.216690
C      -0.201219   -0.022610   -0.004906
N       0.994303    0.189313   -0.882390
C       1.914802   -0.476109    0.080439
C       3.147040    0.358063    0.400427
O       4.256117   -0.088179    0.518535
C       0.767334   -0.437869    1.083887
N       0.614477   -0.591539    2.327405
O       1.819892   -0.935992    2.951877
H      -0.464745    2.052785    0.533357
H      -1.593153    1.473669   -0.707941
H      -1.823928    0.999058    0.986968
H      -0.821508   -0.873633   -0.325028
H       0.946058   -0.259469   -1.789693
H       2.234520   -1.496646   -0.167302
H       2.925380    1.443881    0.492359
H       1.566814   -0.997660    3.879588
