17

C       0.161124    1.291289   -0.355538
C      -0.024067   -0.112777    0.185892
O       0.866451   -0.724478    0.725431
C      -1.431101   -0.731321    0.071496
C      -2.000981   -0.840120   -1.361650
O      -1.703312   -2.176191   -1.761808
C      -1.407797   -2.933483   -0.654395
N      -1.138836   -4.166067   -0.651067
N      -1.468455   -2.119163    0.473434
H       0.356098    1.243628   -1.433445
H      -0.733175    1.905693   -0.212689
H       1.021739    1.758195    0.125246
H      -2.093325   -0.108504    0.689386
H      -3.086270   -0.689773   -1.363560
H      -1.546532   -0.149377   -2.075190
H      -1.184095   -4.542637   -1.594948
H      -0.820769   -2.386611    1.202746
