21

C      -0.037571    1.494577   -0.272099
C      -0.104968   -0.013059   -0.114909
O       0.704904   -0.592425   -1.149720
C       0.783850   -1.937081   -1.168978
N       0.162276   -2.671995   -0.346348
C       1.716387   -2.377278   -2.284141
N       1.615832   -3.808747   -2.509696
C       0.691549   -4.236389   -3.558168
C       2.163663   -4.304108   -3.767299
H       0.991719    1.852046   -0.175613
H      -0.417302    1.803006   -1.250493
H      -0.643854    1.977005    0.500409
H       0.270155   -0.343044    0.859585
H      -1.128400   -0.391110   -0.208904
H       0.388337   -3.646516   -0.545642
H       1.497576   -1.775393   -3.182477
H       2.745888   -2.137831   -1.989733
H       0.121741   -5.136062   -3.347186
H       0.145002   -3.464865   -4.097737
H       2.602774   -3.580493   -4.451914
H       2.687550   -5.253766   -3.710878
