14

O      -1.332015   -0.372850   -0.550745
C      -0.002652   -0.531517   -0.149804
C       0.826388    0.689082   -0.532982
O       0.340044    1.555448   -1.216777
C       0.027570   -0.934070    1.317042
O       1.285522   -0.956990    1.980578
C       0.290978   -0.047053    2.469808
C       0.570863    1.364696    2.335247
N       0.788111    2.497741    2.263450
H      -1.354272    0.473013   -1.029715
H       0.475953   -1.370394   -0.695058
H       1.881743    0.704958   -0.209986
H      -0.613712   -1.791808    1.523041
H      -0.139824   -0.317726    3.432153
