16

C      -0.063656    1.582600   -0.121955
C       0.034365    0.068886    0.000107
N       1.080952   -0.561512   -0.818252
C       1.762567   -1.142056    0.223003
O       2.747313   -1.830466    0.274743
C       0.760543   -0.553726    1.249081
C       1.341946    0.348885    2.328368
H       0.908426    2.060274    0.025533
H      -0.430901    1.865267   -1.114423
H      -0.765554    1.984029    0.616371
H      -0.952201   -0.380607   -0.168883
H       1.202361   -0.636839   -1.817933
H       0.162678   -1.350090    1.703101
H       1.966342    1.141963    1.907673
H       0.553680    0.815809    2.927700
H       1.971448   -0.242268    2.999955
