17

O       0.188186    1.405644    0.044879
C       0.042089    0.025855    0.024547
C       0.434011   -0.690231    1.330285
C      -0.909519   -1.483718    1.339020
C      -1.359981   -0.802233    0.033650
O      -2.638622   -0.263918    0.063215
C      -0.872252   -1.490013   -1.232676
O      -0.641074   -0.442978   -2.196830
C       0.396754   -0.740484   -1.240938
H      -0.125763    1.740431   -0.803855
H       1.352449   -1.281720    1.293481
H       0.510162    0.022650    2.153038
H      -0.835272   -2.573786    1.307721
H      -1.562634   -1.201525    2.166504
H      -2.788443    0.167752   -0.786615
H      -1.084489   -2.479751   -1.622379
H       1.362187   -1.034641   -1.638311
