16

C       0.100634    1.516774    0.058616
C      -0.038863    0.033060    0.043643
C      -1.185382   -0.681743    0.037502
N      -2.458947   -0.132692    0.071405
C      -1.112036   -2.151046    0.047768
N      -2.199581   -2.827579    0.033102
N       0.165970   -2.729549    0.065395
C       1.180167   -1.957715    0.057117
O       1.184261   -0.618166    0.040214
H       0.939412    1.810476    0.697032
H       0.289523    1.929074   -0.940966
H      -0.808958    1.976159    0.453642
H      -2.601819    0.700094   -0.479276
H      -3.154727   -0.851210   -0.097202
H      -1.982924   -3.824615    0.042554
H       2.193925   -2.347778    0.060693
