17

C      -0.242388    1.740100    0.358954
C       0.120794    0.283469    0.088592
C       0.866246    0.019983   -1.220384
C       1.910111   -1.030828   -0.840171
O       2.653544   -1.620543   -1.574779
C       1.829543   -1.193341    0.680790
O       1.001857   -0.144446    1.150999
C      -1.152864   -0.567620    0.202852
O      -1.731491   -1.078829   -0.718888
H       0.669118    2.343648    0.381740
H      -0.907147    2.123486   -0.420424
H      -0.742171    1.839663    1.327344
H       0.208162   -0.357065   -2.006421
H       1.376628    0.914318   -1.591648
H       1.418757   -2.188628    0.914856
H       2.816566   -1.113785    1.145177
H      -1.499595   -0.676556    1.254693
