17

C       0.016998    1.524891    0.095846
C      -0.028987    0.002030   -0.033005
N      -1.397299   -0.539003   -0.047281
C      -1.980646   -0.822285   -1.273707
O      -3.099660   -1.222047   -1.469461
C      -2.040623   -0.716280    1.187096
N      -1.409811   -0.381205    2.252889
C      -3.363488   -1.272410    1.221108
C      -4.451482   -1.724355    1.464479
H       1.056993    1.865508    0.087596
H      -0.506433    2.007525   -0.735503
H      -0.441490    1.842178    1.034062
H       0.449766   -0.318116   -0.962800
H       0.500255   -0.464628    0.798770
H      -1.262670   -0.629913   -2.093410
H      -1.986661   -0.579968    3.067735
H      -5.422443   -2.129208    1.613379
