16

C      -0.065819    1.369770   -0.298871
C       0.128079   -0.112858   -0.131661
O       0.778282   -0.663973    0.713592
O      -0.557835   -0.791316   -1.103840
C      -0.388941   -2.181876   -1.103416
C      -0.871728   -2.883148   -2.319042
C       0.633438   -2.771132   -2.065990
C       1.414280   -1.883000   -2.876721
N       2.045973   -1.158950   -3.520876
H       0.405273    1.691894   -1.232488
H      -1.129648    1.610731   -0.368299
H       0.388287    1.891765    0.542181
H      -0.463369   -2.641821   -0.125568
H      -1.321336   -3.863213   -2.215384
H      -1.273893   -2.265041   -3.112496
H       1.156684   -3.661357   -1.734922
