18

C      -0.038710    1.437653    0.051934
C       0.062249   -0.054461   -0.045654
C       0.505471   -0.913354   -1.238409
C       0.011252   -1.899795   -0.187195
C      -0.144330   -3.376427   -0.284541
O       0.349205   -4.037855   -1.164655
C       0.587199   -1.075142    1.021448
C      -0.784426   -1.083124    1.679228
N      -1.186607   -0.974995    0.210479
H       0.947540    1.895412   -0.078508
H      -0.700692    1.824024   -0.729408
H      -0.434394    1.754294    1.022089
H      -0.101050   -0.835620   -2.144336
H       1.573933   -0.930950   -1.463599
H      -0.748502   -3.846340    0.522823
H       1.594132   -1.151376    1.445748
H      -1.129515   -1.999564    2.165942
H      -1.075272   -0.212928    2.275357
