18

C      -0.065060    1.462994    0.047095
N       0.057783    0.009382    0.039190
C      -0.285032   -0.635388    1.053482
C      -0.281692   -2.097262    1.446521
C      -0.868019   -1.567873    2.771257
O      -0.826752   -0.203040    2.254894
C       1.262593    2.088192   -0.310730
C       1.632016    3.429651    0.152557
O       2.195414    2.264950    0.757698
H      -0.799427    1.747841   -0.718908
H      -0.404942    1.865587    1.009397
H      -0.940204   -2.732516    0.851949
H       0.708374   -2.551855    1.505225
H      -1.893231   -1.866084    3.003330
H      -0.234186   -1.669585    3.655293
H       1.708700    1.713062   -1.232263
H       2.320287    4.035910   -0.435103
H       0.940670    3.993132    0.778787
