16

C      -0.000446    1.521680   -0.030513
C      -0.055490   -0.005785   -0.002511
N      -1.430764   -0.531027   -0.005797
C      -2.044463   -0.783903   -1.239076
N      -3.299829   -0.813876   -1.384132
C      -2.045740   -0.661883    1.223382
O      -1.537522   -0.274005    2.254679
C      -3.324942   -1.378862    1.288103
N      -4.286546   -1.967819    1.540726
H       1.041718    1.854381   -0.043344
H      -0.498113    1.921696   -0.919206
H      -0.482514    1.936564    0.857433
H       0.450823   -0.429850   -0.875147
H       0.435500   -0.386388    0.894137
H      -1.301934   -0.935453   -2.030317
H      -3.554471   -1.067512   -2.336306
