13

N      -0.113056    1.289240   -0.334513
C       0.022662    0.056541   -0.037318
N      -1.116919   -0.674198    0.327945
C      -1.098934   -1.983907    0.663240
C       0.079411   -2.671370    0.658076
N       1.248729   -2.058172    0.318554
C       1.231619   -0.796687   -0.004444
C       2.468378   -0.160981   -0.360200
N       3.437881    0.399151   -0.655038
H       0.780468    1.710510   -0.581760
H      -1.978435   -0.144843    0.324817
H      -2.048969   -2.432487    0.926283
H       0.125493   -3.718993    0.921370
