19

C       0.020873    1.466277   -0.046796
C      -0.044472   -0.034126    0.001276
O       0.171868   -0.672458   -1.278657
C      -0.731240   -1.742586   -0.881049
C       0.094754   -2.855945   -0.240093
C       0.456955   -2.247396    1.108377
C      -0.661580   -1.386961    1.620654
C       0.660390   -0.742078    1.190216
C      -1.299752   -0.883547    0.305929
H       1.037392    1.793219   -0.293702
H      -0.659835    1.856562   -0.808623
H      -0.248164    1.894035    0.924130
H      -1.385382   -2.043982   -1.701928
H      -0.497784   -3.768096   -0.095982
H       0.958410   -3.095382   -0.867190
H       1.030199   -2.828658    1.823117
H      -1.122701   -1.453200    2.596641
H       1.447173   -0.316095    1.802699
H      -2.312510   -0.490720    0.261082
