16

O       0.442561    1.200332   -0.016621
C       0.242525   -0.192526    0.099592
C      -1.158008   -0.573449   -0.343639
C      -1.704850   -1.944499    0.105782
C      -2.702788   -1.116789    0.934293
O      -2.140195    0.134471    0.476878
C      -4.165386   -1.212754    0.543644
O      -4.699319   -2.223520    0.168817
H      -0.280684    1.615362    0.469278
H       0.985937   -0.682573   -0.539476
H       0.403849   -0.542012    1.133296
H      -1.301751   -0.323200   -1.401061
H      -2.170146   -2.559224   -0.664544
H      -1.006554   -2.549942    0.685798
H      -2.628544   -1.223109    2.027130
H      -4.709860   -0.245585    0.626763
