17

O       0.254554    1.148286    0.531266
C      -0.007718   -0.191272    0.149791
C      -1.475932   -0.376151   -0.210092
O      -1.851189    0.608118   -1.189119
C      -1.611844   -0.742664   -1.623034
C      -0.254040   -0.937409   -2.263043
C       0.775861   -0.638300   -1.146104
C       1.829316    0.391679   -1.516435
O       1.897682    0.948544   -2.582268
H      -0.254687    1.699745   -0.079360
H       0.273787   -0.807883    1.007417
H      -2.218538   -0.585651    0.555115
H      -2.489087   -1.254573   -2.010098
H      -0.155776   -1.961570   -2.635116
H      -0.111050   -0.261114   -3.110692
H       1.334199   -1.550138   -0.897290
H       2.567721    0.595838   -0.714250
