14

O      -0.137782    1.314162    0.107646
C       0.059372   -0.008979   -0.026637
C       1.236325   -0.664453    0.132626
C       1.280731   -2.098592   -0.048279
O       2.257296   -2.813790    0.060921
N       0.032766   -2.673717   -0.385722
C      -1.180727   -2.032253   -0.554448
N      -2.316277   -2.527114   -0.857634
N      -1.092549   -0.656054   -0.353495
H       0.697930    1.735170    0.338325
H       2.150312   -0.150084    0.392027
H       0.058772   -3.674727   -0.513134
H      -2.267366   -3.535293   -0.981152
H      -1.949188   -0.135635   -0.463555
