14

O       1.161830    0.903251    0.754471
C       0.468274   -0.116448    0.234501
N       0.953781   -0.840422   -0.759348
N      -0.060092   -1.734758   -0.956302
C       0.089736   -2.738838   -2.000333
C      -1.063595   -3.621880   -2.097302
C      -2.003201   -4.362403   -2.196276
C      -1.061411   -1.498632   -0.093684
N      -0.762925   -0.470549    0.686559
H       0.614852    1.276501    1.456188
H       0.255589   -2.220748   -2.952149
H       0.997393   -3.317052   -1.791288
H      -2.832519   -5.020339   -2.287691
H      -1.965783   -2.084862   -0.069617
