16

C      -0.221840    1.564821    0.040997
O      -0.115995    0.140600    0.031028
C       0.553515   -0.453501   -1.035926
C       0.328575   -1.977219   -0.989358
N      -0.512973   -2.280821   -2.154785
C      -0.640157   -1.193265   -2.782898
O      -0.038630   -0.062063   -2.300676
C       2.020556   -0.006710   -1.123431
O       2.953223   -0.758914   -1.031559
H       0.703928    2.044315    0.379997
H      -0.497190    1.949150   -0.945706
H      -1.015587    1.801370    0.751949
H       1.275800   -2.518741   -1.049927
H      -0.177209   -2.252565   -0.060978
H      -1.187914   -1.045943   -3.706481
H       2.164130    1.080668   -1.290749
