18

C      -0.039602    1.568832    0.079857
C       1.430708    1.981408    0.012641
N       2.295393    2.032420   -1.191313
C       2.241765    0.808398   -0.408332
C       3.129553    0.216317    0.664988
O       2.108026   -0.418735    1.472638
C       1.080832   -0.854150    0.594134
C       0.012242    0.052316   -0.069032
C       1.295187   -0.327878   -0.777810
H      -0.469297    1.898321    1.032023
H      -0.657984    2.006087   -0.715342
H       1.800829    2.624404    0.804918
H       1.767646    1.905554   -2.053086
H       3.846535   -0.534768    0.306338
H       3.647155    0.954298    1.280768
H       0.770348   -1.874817    0.793186
H      -0.907787   -0.477343   -0.307041
H       1.401689   -0.901932   -1.691804
