16

O      -0.006845   -0.030689   -0.509561
C      -0.071916    1.113153   -0.100500
N      -1.263286    1.680028    0.262272
C      -1.564820    3.079723    0.485433
C      -0.660133    3.705156    1.542418
N       0.670644    3.975619    1.036692
C       1.559472    3.103715    0.469165
O       2.732782    3.390959    0.324992
N       1.110421    1.854985    0.019961
H      -2.031683    1.063148    0.050943
H      -1.500531    3.674209   -0.437080
H      -2.598656    3.126319    0.838305
H      -1.084738    4.667535    1.840843
H      -0.647016    3.057074    2.430335
H       1.144577    4.795991    1.380226
H       1.890605    1.315433   -0.328881
