16

C      -0.059377    1.512009   -0.002245
C      -0.018644    0.007972    0.009136
C      -0.002468   -0.729611   -1.164926
N       0.023878   -2.068069   -1.243595
C       0.034312   -2.701241   -0.094203
F       0.061742   -4.033221   -0.155852
C       0.023912   -2.113095    1.161235
C      -0.004529   -0.717237    1.224196
N      -0.070719   -0.061971    2.437053
H       0.825878    1.954483    0.475654
H      -0.093750    1.890475   -1.026809
H      -0.939116    1.899498    0.526484
H      -0.011866   -0.203615   -2.117645
H       0.035551   -2.726436    2.054531
H       0.199497   -0.592148    3.250695
H       0.247320    0.893644    2.457820
