23

C       0.137018    1.491811    0.110294
C      -0.236610    0.011301   -0.061936
C      -1.746918   -0.156937   -0.277209
C       0.549046   -0.588034   -1.215343
C       1.947348   -1.078434   -1.060012
C       0.848489   -2.091646   -1.338984
C       0.459283   -3.041411   -0.256318
C      -0.194075   -4.333803   -0.714344
O       0.650825   -2.810310    0.921403
H       1.209819    1.612285    0.290001
H      -0.119406    2.072411   -0.784479
H      -0.399626    1.933586    0.956209
H       0.042562   -0.523665    0.850617
H      -2.073717    0.344004   -1.196991
H      -2.024212   -1.213003   -0.355358
H      -2.312410    0.276135    0.554225
H       0.316372   -0.133429   -2.177478
H       2.672745   -0.895061   -1.844700
H       2.348245   -1.117686   -0.052209
H       0.784884   -2.494239   -2.344583
H       0.497458   -4.899472   -1.349836
H      -0.473183   -4.937069    0.150045
H      -1.080002   -4.120141   -1.323121
