23

C       0.056890    1.584125   -0.018263
C       0.011045    0.053600    0.014093
C       0.619741   -0.544917   -1.269209
C       0.908080   -2.032391   -1.175020
O       2.106067   -2.404926   -0.474300
C       0.845044   -2.750035    0.109024
C       0.487900   -2.035631    1.397943
C       1.272827   -2.622887    2.578796
C       0.698679   -0.518175    1.262314
H       1.092831    1.943153   -0.024419
H      -0.436135    1.979621   -0.913085
H      -0.440375    2.015741    0.856756
H      -1.044822   -0.253711    0.053808
H      -0.051841   -0.362114   -2.116171
H       1.562432   -0.033878   -1.506227
H       0.753160   -2.607076   -2.088969
H       0.629932   -3.820915    0.094134
H      -0.583996   -2.218245    1.569292
H       2.349492   -2.506157    2.418693
H       1.010596   -2.117506    3.513914
H       1.065701   -3.690995    2.704827
H       1.774188   -0.304859    1.218788
H       0.313079   -0.022217    2.161048
