21

C      -0.088942    1.506086    0.026977
C      -0.024110   -0.009588    0.027605
C      -1.246587   -0.689901   -0.558817
C       1.330149   -0.659629   -0.192325
C       0.687206   -0.684480    1.168114
C       1.278377   -0.090998    2.476599
C       0.829088   -1.385204    3.179798
O      -0.586017   -1.505380    3.004185
C       0.273189   -1.930777    1.931455
H       0.812550    1.950895    0.458786
H      -0.193987    1.891581   -0.994112
H      -0.948290    1.863398    0.606387
H      -1.405536   -0.380257   -1.598529
H      -1.147221   -1.779298   -0.548823
H      -2.147962   -0.433566    0.009232
H       1.369130   -1.588053   -0.755392
H       2.195059   -0.018384   -0.335637
H       2.365282    0.023083    2.436795
H       0.823199    0.823781    2.864682
H       1.270152   -1.883937    4.034694
H       0.168508   -2.953008    1.586156
