18

O       0.187386    1.328834    0.146579
C       0.046262   -0.060944   -0.117609
C      -1.385588   -0.504404   -0.099531
C      -2.099964   -0.943824    1.143572
C      -1.957942   -1.941681    0.007231
C      -2.919991   -1.597045   -1.071941
C      -2.427916   -0.157652   -1.187251
N      -3.706554   -2.344438   -1.725810
O      -4.376610   -1.608768   -2.725564
H      -0.219950    1.502080    1.001955
H       0.481239   -0.212229   -1.111609
H       0.630440   -0.669780    0.591735
H      -1.467218   -1.161170    1.999805
H      -3.077397   -0.543601    1.399378
H      -1.448326   -2.887691    0.139138
H      -3.137039    0.642631   -0.958246
H      -1.988524    0.032343   -2.171011
H      -4.913513   -2.287669   -3.147398
