15

N      -0.156902    1.324528   -0.078166
C      -0.067890    0.071744   -0.021502
O      -1.205137   -0.661002    0.168958
C      -1.047027   -2.026811    0.121021
C      -1.230738   -2.855459   -1.156808
C      -2.087028   -3.106644    0.040023
O      -1.344566   -3.925508    0.988976
C      -0.422673   -2.895314    1.173687
N       0.528630   -2.764104    1.973285
H       0.766606    1.734439   -0.202167
H       0.835173   -0.543418   -0.090426
H      -1.705230   -2.288136   -1.952263
H      -0.496980   -3.593002   -1.466197
H      -3.164037   -3.091173    0.121541
H       0.632288   -3.576062    2.583471
