16

N      -0.106405    1.317503   -0.163905
C       0.025503   -0.048901    0.069311
O       1.098325   -0.576374    0.298696
N      -1.162274   -0.738820   -0.013857
C      -1.162112   -2.168621   -0.008306
C      -2.105472   -2.917720    0.913642
C      -2.372850   -2.848398   -0.573582
O      -3.365806   -1.979918   -1.049462
H       0.711222    1.831604    0.127553
H      -0.976648    1.751228    0.106907
H      -1.946483   -0.314494   -0.487262
H      -0.180951   -2.587115   -0.194500
H      -1.782913   -3.859848    1.343457
H      -2.740373   -2.308634    1.548594
H      -2.231549   -3.746563   -1.172687
H      -4.222402   -2.311707   -0.762493
