18

O       0.175925   -0.031170   -0.539938
C       0.066352    1.115116   -0.223776
C      -1.110988    2.055129    0.127790
N      -0.142831    3.161651    0.385145
C       0.416123    3.317991    1.777733
C       0.073663    2.287653    2.889536
C       1.325024    1.438791    2.497065
C       1.686246    2.484051    1.405797
C       1.035884    2.293908    0.009023
H      -1.759405    2.272369   -0.729015
H      -1.746296    1.743181    0.962283
H       0.443359    4.365825    2.082342
H       0.155139    2.732412    3.884327
H      -0.897672    1.791357    2.832435
H       2.069351    1.371300    3.293053
H       1.128851    0.428375    2.131121
H       2.697587    2.889249    1.406713
H       1.631547    2.591496   -0.860360
