20

C       0.677497    1.546297    0.155405
C       0.095815    0.140003    0.027813
C       0.846036   -0.821796   -0.951930
O       1.684070   -0.284850   -1.948780
C       1.476714   -1.584525    0.259795
C       2.949584   -1.291182    0.537098
C       0.449671   -0.851727    1.184984
O       0.871838   -0.346182    2.430183
H       1.756227    1.555146    0.355616
H       0.518518    2.112103   -0.767264
H       0.195418    2.087699    0.974679
H      -0.976901    0.227216   -0.169939
H       0.141737   -1.458557   -1.493132
H       2.331471    0.290176   -1.529339
H       1.342891   -2.669845    0.219771
H       3.177159   -0.219382    0.594313
H       3.256253   -1.734794    1.488880
H       3.579358   -1.710406   -0.253068
H      -0.398645   -1.499360    1.420210
H       1.623738    0.236671    2.286507
