21

C      -0.017641    1.539750    0.044303
C       0.033090    0.036604   -0.033634
C       0.022092   -0.582719   -1.227346
C      -0.011485   -2.005006   -1.556537
C       0.012976   -3.094881   -0.775182
C       0.158944   -3.189887    0.719342
O       0.845203   -4.397800    1.062116
C       0.840727   -1.986270    1.379962
C       0.073331   -0.661558    1.307230
H       0.884072    1.942843    0.524471
H      -0.114265    1.999342   -0.942455
H      -0.865142    1.871091    0.659652
H      -0.008956    0.063623   -2.102511
H      -0.108397   -2.193405   -2.624340
H      -0.073614   -4.068184   -1.253837
H      -0.835055   -3.320888    1.170457
H       1.696655   -4.378233    0.610464
H       0.994555   -2.251445    2.430810
H       1.835700   -1.854674    0.935357
H       0.522692    0.027478    2.032822
H      -0.958730   -0.807277    1.662159
