15

O      -0.070054   -0.018939   -0.093536
C      -0.015299    1.168910    0.026849
C      -1.044733    2.311613    0.050298
C      -0.763955    3.064357    1.372000
O      -0.931321    4.468793    1.062992
C       0.266786    4.322458    0.295536
C       0.802912    3.175553    1.184853
C       1.081315    2.229650   -0.019983
C       0.029769    3.164699   -0.744982
H      -2.078341    2.187445   -0.260897
H      -1.263311    2.748200    2.285454
H       0.758591    5.250757    0.011157
H       1.449096    3.293849    2.050968
H       2.100596    2.045918   -0.347972
H      -0.057371    3.269969   -1.822088
