15

O      -0.552605    0.704684    0.637963
C       0.227965    0.922846   -0.254859
C       1.378958    1.843731   -0.107075
C       1.736719    2.670113    1.131260
C       2.123150    3.870355    0.209733
C       1.765898    3.021807   -1.027549
N       2.471520    1.758144   -1.064337
C       1.138594    3.508456   -2.218865
N       0.626395    3.943784   -3.160136
H       0.141436    0.460036   -1.259146
H       0.863782    2.874401    1.751437
H       2.527394    2.245220    1.755231
H       1.459594    4.726618    0.335205
H       3.160575    4.215307    0.233828
H       3.389674    1.805538   -0.625133
