15

C      -0.064720    1.597739   -0.279506
C       1.244693    0.909284    0.023572
O       1.722704    0.874263    1.330318
C       1.020353   -0.180293    1.992329
O      -0.245650   -0.312541    1.341624
C      -0.064561    0.119937    0.031091
C       0.529683   -0.819079   -1.066553
O       0.879614    0.013643   -2.173875
C       1.788444   -0.060351   -1.073625
H      -0.434733    2.219080    0.527314
H      -0.277113    1.940422   -1.284026
H       1.587462   -1.121480    1.927671
H       0.858548    0.098030    3.037103
H       0.279654   -1.855456   -1.260926
H       2.819995   -0.324234   -1.275210
