18

C       0.166020    1.540508   -0.040475
C       0.091186    0.045256    0.034847
C      -1.165255   -0.802262   -0.142139
O      -0.704350   -1.777084    0.840540
C       0.444846   -0.966820    1.116906
C       1.296458   -0.880618   -0.105607
N       1.352158   -1.993675   -0.998980
C       2.118622   -2.004027   -2.120824
O       2.815312   -1.083626   -2.493297
H       1.124986    1.905620    0.339496
H       0.072856    1.886354   -1.076258
H      -0.629583    2.012192    0.547172
H      -2.076989   -0.311357    0.214833
H      -1.340681   -1.252051   -1.126025
H       0.776807   -0.895687    2.147163
H       2.246372   -0.366712    0.001239
H       0.799545   -2.801921   -0.754259
H       2.042743   -2.968641   -2.661430
