14

C      -0.021147    1.447255    0.005186
N       0.038908    0.001211    0.062872
C       0.638460   -0.688032    1.057866
N       0.610482   -2.037891    0.965118
C       1.207517   -2.663225    1.960746
C       1.809020   -1.959484    3.008446
N       1.797752   -0.629801    3.033377
N       1.207842    0.030410    2.050836
H       0.980566    1.888274   -0.026000
H      -0.563651    1.734027   -0.897545
H      -0.537781    1.860314    0.877592
H      -0.375159   -0.555266   -0.664965
H       1.213424   -3.751346    1.933979
H       2.303958   -2.457012    3.834427
