18

C      -0.014454    1.458132    0.048160
C      -0.039289   -0.056554   -0.020625
C      -1.212290   -0.687587   -0.630089
C      -1.217225   -2.020398   -0.742050
C      -0.058083   -2.743396   -0.226033
C       0.698383   -2.267344    0.975987
C       0.711607   -0.748848    1.136098
C       1.337767   -0.700042   -0.224722
N       1.359752   -2.193704   -0.357947
H       0.920454    1.824181    0.483919
H      -0.111638    1.896019   -0.951016
H      -0.838388    1.835393    0.663646
H      -2.021127   -0.062329   -0.993686
H      -2.025049   -2.575641   -1.203865
H      -0.035678   -3.817931   -0.377887
H       1.044936   -2.952557    1.742875
H       0.950903   -0.219811    2.048917
H       2.169194   -0.139489   -0.632118
