19

C      -0.151767    1.454949    0.061357
N       0.015242    0.008298    0.093712
C       1.354063   -0.515798   -0.182310
C       0.777813   -0.554860    1.182347
C       1.285633    0.133417    2.432043
N       0.094192    0.218762    3.328242
C       0.883850   -1.034708    3.267770
C       0.336086   -1.787373    2.039817
O      -1.008894   -2.150684    2.048195
H       0.744799    2.012000    0.379979
H      -0.399680    1.763761   -0.958780
H      -0.978503    1.734490    0.720505
H       1.399646   -1.416219   -0.790475
H       2.155155    0.201410   -0.366055
H       2.124611    0.805899    2.556826
H       0.377698    0.717070    4.170885
H       1.352569   -1.442435    4.154385
H       0.917076   -2.681456    1.798015
H      -1.496868   -1.351138    2.284643
