17

C       0.052795    1.640879    0.072861
C       0.061029    0.114224    0.089130
N       0.653198   -0.419603   -1.139819
C      -0.257209   -0.498657   -2.322854
C       0.504720   -1.731519   -2.886353
O      -0.688286   -2.533117   -3.108130
C      -0.985523   -1.822556   -1.874171
C       0.495318   -1.888826   -1.339517
H       1.065149    2.026226   -0.077202
H      -0.577713    2.025822   -0.735818
H      -0.337081    2.037005    1.015361
H       0.674783   -0.242152    0.925681
H      -0.963045   -0.263168    0.264412
H      -0.653566    0.366067   -2.855456
H       1.329627   -1.785127   -3.594083
H      -1.948526   -2.008405   -1.399826
H       0.976834   -2.644073   -0.716893
