21

C       0.181251    0.888754    0.902476
C       0.055815    0.029554   -0.337278
O       0.933466   -0.051712   -1.165763
C      -1.224274   -0.792532   -0.486037
C      -0.998677   -2.239625   -0.000489
O      -0.657056   -2.270303    1.387157
C      -2.195374   -3.142020   -0.307798
C      -1.961228   -4.597402    0.080667
O      -3.148731   -5.315777   -0.219107
H       1.138050    1.412119    0.906730
H      -0.640688    1.612003    0.955179
H       0.101262    0.240310    1.782117
H      -2.057440   -0.348496    0.072618
H      -1.487230   -0.810402   -1.547895
H      -0.107937   -2.626335   -0.509824
H      -1.453884   -2.058614    1.887619
H      -3.084402   -2.772186    0.222795
H      -2.429399   -3.092744   -1.377091
H      -1.099823   -4.993496   -0.481513
H      -1.708174   -4.658915    1.148545
H      -3.018219   -6.232076    0.041482
