19

C      -0.015753    1.594387   -0.048021
C       0.056906    0.084167   -0.065155
C       0.687973   -0.735007   -1.140645
C       0.095627   -1.791701   -2.006917
O       1.848003   -0.007534   -1.661178
C       2.485238   -0.114015   -0.425913
N       3.667028    0.147062   -0.095559
C       1.312006   -0.745971    0.257550
N       1.297999   -1.730532    1.276242
H       0.846782    2.038469   -0.549089
H      -0.918110    1.939487   -0.563915
H      -0.051367    1.974064    0.978066
H      -0.808908   -0.421703    0.360748
H      -0.431585   -1.355392   -2.862384
H       0.872347   -2.461364   -2.388639
H      -0.620760   -2.381942   -1.428551
H       4.200187    0.514595   -0.885645
H       2.113707   -2.331149    1.205674
H       1.323384   -1.301773    2.196414
