19

C      -0.012224    1.517879    0.036626
C      -0.017565    0.022424   -0.033831
C      -0.015096   -0.719166   -1.150323
C       0.024710   -2.185666   -0.991880
C      -0.708549   -2.807540    0.215201
C      -1.188515   -1.789733    1.230695
C       0.015750   -0.810971    1.226781
O       1.163548   -1.697366    1.148812
C       0.782345   -2.691907    0.244107
H       0.882259    1.888266    0.554213
H      -0.034075    1.964304   -0.961669
H      -0.876300    1.901610    0.595465
H       0.006325   -0.281838   -2.144094
H       0.079410   -2.799697   -1.883077
H      -1.225042   -3.749730    0.085503
H      -2.119188   -1.284078    0.960878
H      -1.307075   -2.262073    2.211019
H       0.124411   -0.221395    2.137909
H       1.491958   -3.506587    0.183893
