17

N       0.055917    1.322463    0.150853
C      -0.022685   -0.047158    0.035719
N      -1.097111   -0.731878    0.180753
C      -0.719893   -2.137720    0.038470
C      -1.296454   -2.721573   -1.274930
C      -2.756416   -2.711552   -1.312253
N      -3.911126   -2.732299   -1.345849
C       0.840950   -2.157717    0.032397
N       1.154063   -0.748777   -0.242910
H       0.713851    1.767023   -0.473328
H      -0.853430    1.762686    0.143084
H      -1.119933   -2.726611    0.870388
H      -0.916111   -2.143681   -2.124780
H      -0.956751   -3.756313   -1.403244
H       1.233460   -2.475071    1.006078
H       1.260218   -2.816462   -0.735003
H       1.993661   -0.384685    0.187302
