19

C       0.030541    1.325038    0.276337
C       0.009281   -0.178059   -0.001457
C      -1.390244   -0.774966    0.034924
O      -2.378554   -0.196480    0.405519
N       0.667086   -0.575893   -1.243779
C       0.130815   -0.114992   -2.516507
C       1.905757   -1.185831   -1.147178
N       2.539191   -1.430423   -2.353985
O       2.431465   -1.457236   -0.079760
H       1.062130    1.677328    0.349921
H      -0.480976    1.891217   -0.507898
H      -0.485783    1.535019    1.215703
H       0.578470   -0.697447    0.781143
H      -1.428312   -1.831290   -0.318656
H       0.824440    0.555824   -3.036821
H      -0.114843   -0.950124   -3.186330
H      -0.796471    0.431988   -2.338476
H       1.992749   -1.577914   -3.186735
H       3.332022   -2.044581   -2.252281
