18

C      -0.220359    1.432718   -0.069739
C       0.113062   -0.044777    0.015103
C       1.388378   -0.676147   -0.677289
C       2.520513    0.117821   -0.007085
C       2.163111    0.112051    1.279843
C       0.848802   -0.685429    1.257780
N       1.253121   -1.791803    0.320203
C       0.615033   -2.974682    0.105326
O       0.519702   -3.534339   -0.967921
H       0.637457    2.063461    0.173357
H      -0.559286    1.687273   -1.079613
H      -1.034709    1.679891    0.619972
H      -0.763834   -0.650436   -0.238075
H       1.431476   -0.946316   -1.728815
H       3.379714    0.550529   -0.497023
H       2.643609    0.538256    2.147637
H       0.347514   -0.952219    2.187397
H       0.246670   -3.414929    1.055806
