13

C      -0.033745    1.506165    0.013773
C      -0.005469    0.008479   -0.027616
N      -0.029788   -0.618526   -1.162224
C      -0.002534   -2.019090   -1.181702
O      -0.021638   -2.691925   -2.184231
N       0.050599   -2.627805    0.082680
N       0.076801   -2.012879    1.270151
C       0.049352   -0.732369    1.211082
F       0.073479   -0.058381    2.354253
H       0.854361    1.891145    0.526515
H      -0.074525    1.899296   -1.001501
H      -0.901188    1.856416    0.583601
H       0.071726   -3.637984    0.112944
