20

C      -0.254991    1.590200    0.106525
C      -0.035171    0.088527    0.097628
O       0.468293   -0.264255   -1.196833
C       0.744433   -1.576978   -1.413070
N       0.544940   -2.436200   -0.511164
C       0.806656   -3.855974   -0.661754
C       1.293715   -1.658613   -2.814104
C       2.603646   -2.261404   -3.118671
O       1.389690   -2.912644   -3.483719
H       0.681564    2.123811   -0.079548
H      -0.975754    1.884460   -0.661831
H      -0.642551    1.903757    1.080493
H       0.682949   -0.226844    0.862271
H      -0.962201   -0.463868    0.284679
H      -0.082704   -4.407734   -0.336363
H       1.064571   -4.178199   -1.672508
H       1.612823   -4.143475    0.025074
H       0.958665   -0.835399   -3.442252
H       3.191968   -1.867288   -3.945235
H       3.168234   -2.739378   -2.320303
