17

N       0.000797    1.288934   -0.375196
C       0.030060    0.055615   -0.057943
N      -1.031822   -0.818304   -0.080935
C      -1.890845   -1.030938   -1.270986
C      -1.294800   -2.461996   -1.422032
C      -0.595177   -2.241962   -0.049453
C       0.930101   -2.239216    0.111581
C       1.277561   -0.756248    0.290663
O       2.345814   -0.280333    0.566882
H       0.945164    1.667482   -0.266505
H      -2.956038   -1.001015   -1.026153
H      -1.685841   -0.315458   -2.071346
H      -2.003865   -3.289584   -1.476955
H      -0.588169   -2.540254   -2.252371
H      -1.084100   -2.789342    0.762853
H       1.296542   -2.826356    0.956829
H       1.444654   -2.604453   -0.784633
