18

C      -0.151374    1.543193    0.012390
C       0.010108    0.021987    0.010570
C       0.718488   -0.518823    1.247371
O      -0.009862   -0.213176    2.407596
C       0.377265   -1.184734    3.378171
C       0.744423   -2.422629    2.527093
O       0.797356   -1.924472    1.186144
C       2.110005    0.039203    1.372316
N       3.181043    0.460116    1.477264
H       0.819297    2.047794    0.030558
H      -0.680333    1.865805   -0.888192
H      -0.723696    1.873385    0.883001
H      -0.962471   -0.478593   -0.014547
H       0.575927   -0.312667   -0.864458
H       1.235926   -0.826207    3.958755
H      -0.469211   -1.345287    4.047713
H       1.711057   -2.847696    2.816611
H      -0.016960   -3.206615    2.563457
