17

C       0.492445    1.044231    0.415441
C      -0.316520    0.003498   -0.363281
N       0.393401   -0.974474   -1.174808
C       1.644335   -0.957004   -1.228866
O       2.265148   -1.907569   -2.013893
C       3.635583   -1.892761   -2.076546
C       4.113176   -2.999879   -2.977515
O       4.327070   -1.104619   -1.491116
H       1.166805    0.577522    1.141076
H       1.091400    1.676068   -0.248757
H      -0.189515    1.696954    0.968363
H      -0.946516   -0.567812    0.330844
H      -1.020617    0.511701   -1.034903
H       2.346055   -0.286248   -0.736756
H       5.201070   -2.985807   -3.025652
H       3.764039   -3.964383   -2.597970
H       3.688874   -2.874029   -3.977689
