19

C       0.018061    1.518702    0.062021
C       0.261051    0.022339   -0.034242
O       0.352864   -0.503300    1.278845
C       0.536339   -1.891784    1.321068
C       1.975510   -2.441290    1.170128
C       2.334262   -2.032170    2.636811
O       2.829947   -3.352074    3.010215
C       1.675342   -3.611132    2.157645
C       0.824996   -2.432460    2.724621
H       0.840811    2.007774    0.591241
H      -0.061946    1.957397   -0.937013
H      -0.907956    1.722047    0.607228
H      -0.562065   -0.469910   -0.578754
H       1.187159   -0.183750   -0.594656
H      -0.240601   -2.411767    0.740664
H       2.649036   -2.469585    0.314493
H       2.847597   -1.151031    3.014764
H       1.391591   -4.642605    1.954441
H       0.196666   -2.439551    3.613886
