14

C      -0.008100    1.538192   -0.002048
C      -0.011334   -0.001367   -0.018025
O       0.668839   -0.514405    1.112566
C      -1.454285   -0.578577   -0.032487
O      -2.052563   -0.398393    1.241732
C       0.686152   -0.481900   -1.226730
N       1.187432   -0.841480   -2.203232
H       1.017534    1.902616    0.078652
H      -0.462293    1.951487   -0.907376
H      -0.562220    1.894423    0.872362
H      -0.010288   -0.587957    1.799297
H      -2.045004   -0.128984   -0.839099
H      -1.400433   -1.657575   -0.195769
H      -2.390413    0.500784    1.303520
