18

C       0.065279    1.415896    0.077817
O      -0.082880    0.022462   -0.109466
C       0.699342   -0.530805   -1.152172
C       2.181975   -0.641930   -0.803094
C       0.043600   -1.909844   -1.405869
C      -1.472540   -1.722686   -1.624004
O      -2.307993   -2.346486   -1.037789
C       0.618472   -2.567633   -2.575484
N       1.059080   -3.065595   -3.521252
H       1.062178    1.683007    0.452577
H      -0.118455    1.969076   -0.855337
H      -0.678415    1.714264    0.819508
H       0.581357    0.077673   -2.064985
H       2.312148   -1.217038    0.118671
H       2.729513   -1.137680   -1.609321
H       2.624718    0.346922   -0.659008
H       0.168134   -2.546944   -0.524381
H      -1.723104   -0.958898   -2.390815
