13

O      -0.070258    0.002946    0.025280
C      -0.064458    1.197120    0.020064
N      -1.032804    2.158293   -0.057937
C      -0.151050    3.321941    0.033430
C       1.053633    2.320507    0.078209
C       1.898392    2.340160    1.240646
C       2.596592    2.346868    2.227474
C       3.385367    2.363968    3.340721
N       4.056617    2.384102    4.288899
H      -2.036233    2.078296   -0.129818
H      -0.165912    3.973185   -0.844646
H      -0.276959    3.912576    0.944057
H       1.646133    2.324480   -0.841235
