15

C      -0.049037    1.438261    0.003267
N      -0.058414   -0.012835    0.088815
C      -1.245198   -0.696224    0.058545
N      -2.363521   -0.047593    0.113090
O      -3.519621   -0.848957    0.168911
C      -3.488316   -2.224683    0.021407
N      -4.564379   -2.887309   -0.064267
N      -2.253828   -2.880591   -0.005304
C      -1.204245   -2.156682    0.018216
H       0.982180    1.787478    0.077016
H      -0.495191    1.805933   -0.930161
H      -0.627641    1.853527    0.832119
H       0.723634   -0.492126   -0.329459
H      -5.366069   -2.255508   -0.040950
H      -0.231268   -2.652600    0.011800
