16

N       0.102819    1.280142    0.257872
C       0.057244    0.042806    0.011911
O       1.122062   -0.722240   -0.389077
C       0.682026   -1.988083   -0.916889
C      -0.755721   -2.167344   -0.465316
C      -1.019413   -2.048215    0.987615
C      -1.159429   -0.805171    0.103710
C      -2.513245   -0.229163   -0.100937
O      -3.522476   -0.893769   -0.091639
H       1.034216    1.654568    0.072070
H       0.754863   -1.962363   -2.010208
H       1.359096   -2.758787   -0.536208
H      -1.454171   -2.703286   -1.095818
H      -1.965729   -2.432659    1.350412
H      -0.190651   -2.067467    1.687588
H      -2.526182    0.865863   -0.264516
