19

C       0.007774    1.537368   -0.020039
C       0.016675    0.022482   -0.054462
C      -1.227623   -0.631218    0.519776
C       0.640622   -0.763608   -1.194245
C       1.924363   -0.107513   -1.676628
O       2.438780   -0.005068   -0.321836
C       1.309903   -0.738541    0.185958
C       1.531735   -1.725529    1.183141
C       1.719371   -2.546667    2.042871
H       0.986611    1.952204   -0.265762
H      -0.732173    1.938757   -0.721726
H      -0.259066    1.890176    0.982050
H      -2.114867   -0.323303   -0.044804
H      -1.167481   -1.722491    0.487484
H      -1.373198   -0.337255    1.564463
H       0.126712   -1.580796   -1.683539
H       2.555885   -0.774848   -2.273313
H       1.848801    0.868703   -2.168528
H       1.890086   -3.273817    2.797753
