17

C      -0.027433    1.544252   -0.044813
C       1.439070    1.947813    0.084534
C       2.220622    0.878280    0.226407
C       3.676427    0.497813    0.166489
C       3.580616   -0.997934   -0.122706
C       2.328525   -1.474370   -0.080065
C       1.402344   -0.374895    0.256260
O       0.441442   -0.461313    1.339299
C      -0.003494    0.015153    0.062524
H      -0.663449    1.983237    0.733647
H      -0.438543    1.865839   -1.010648
H       1.756940    2.983334    0.031988
H       4.227921    1.039357   -0.611322
H       4.215476    0.677104    1.107626
H       4.461509   -1.594846   -0.331654
H       2.032332   -2.505536   -0.222233
H      -0.757647   -0.593978   -0.428824
