18

O      -0.020233    0.005701    0.113960
C      -0.032266    1.200207    0.029292
C      -1.119182    2.282685    0.060138
C      -0.029750    3.169065    0.753056
C       1.044932    2.313751    0.019432
N       1.244123    2.898020   -1.320318
C       0.956115    2.037306   -2.476390
C      -0.011989    3.096156   -2.071446
C      -1.343984    2.781787   -1.386009
H      -2.058088    2.068941    0.573091
H      -0.027102    4.232900    0.507609
H      -0.007525    3.027656    1.835250
H       2.012290    2.113424    0.483024
H       1.598426    2.194952   -3.338299
H       0.691742    0.998215   -2.296220
H      -0.012250    4.011274   -2.659002
H      -1.916817    2.042356   -1.957283
H      -1.950773    3.693053   -1.346618
