17

O       0.066699    1.394042   -0.009023
C      -0.037662   -0.020420   -0.103445
C      -1.460316   -0.497934   -0.116859
C      -2.609239   -0.187857   -1.101965
C      -3.267081   -1.126179   -0.062781
O      -4.574408   -1.527670    0.052919
C      -1.942758   -1.963749    0.134489
O      -1.942324   -1.839096    1.586832
C      -2.432909   -0.551543    1.115943
H      -0.267328    1.652906    0.855865
H       0.459908   -0.291971   -1.040882
H       0.496831   -0.525868    0.715194
H      -2.964972    0.845123   -1.123448
H      -2.494889   -0.579245   -2.117816
H      -4.848662   -1.938656   -0.774206
H      -1.606824   -2.897796   -0.316430
H      -2.693470    0.215934    1.845379
