16

N      -0.009322   -1.163758   -0.204571
C      -0.024551   -0.008807   -0.168965
C      -0.015873    1.450483   -0.115116
C       1.395363    2.020540    0.181597
C       1.400830    3.507901    0.221942
C       1.665158    4.421381    1.195032
C       1.490630    5.714868    0.600724
C       1.129852    5.488926   -0.687318
O       1.069598    4.151884   -0.936968
H      -0.377620    1.844311   -1.070151
H      -0.721414    1.781659    0.654323
H       1.749762    1.642044    1.143618
H       2.089018    1.653895   -0.583733
H       1.954097    4.202400    2.211250
H       1.619152    6.675885    1.073053
H       0.892443    6.130068   -1.519951
