19

C       0.007528    1.543144    0.008221
C      -0.003804    0.043000   -0.056643
C      -0.013858   -0.659591   -1.191216
C      -0.024590   -2.163469   -1.150833
C      -0.022184   -2.683562    0.281986
C      -0.903821   -1.986057    1.358516
O      -0.011741   -2.513687    2.408148
C       0.878826   -1.999066    1.350795
C      -0.003700   -0.720625    1.242110
H       0.891932    1.910077    0.545011
H       0.005086    1.989588   -0.989887
H      -0.865146    1.922924    0.555146
H      -0.014557   -0.167636   -2.160281
H      -0.902822   -2.555277   -1.684470
H       0.843248   -2.567932   -1.691984
H      -0.029793   -3.772695    0.360648
H      -1.980126   -2.048234    1.525578
H       1.955514   -2.076958    1.508544
H       0.004708   -0.103424    2.142164
