16

C      -0.384811    1.484385   -0.121337
C       0.113700    0.054470   -0.069961
O       1.374501   -0.130284   -0.757756
C       1.950151   -0.829375    0.359486
C       0.706146   -0.560940    1.231188
C       0.925603    0.341940    2.421897
F       1.697259    1.404034    2.134489
F      -0.238104    0.809426    2.903487
F       1.533857   -0.326524    3.416621
H       0.348176    2.179042    0.291417
H      -0.574549    1.757762   -1.163670
H      -1.320890    1.584065    0.436556
H      -0.648190   -0.614800   -0.494091
H       2.129183   -1.888927    0.141886
H       2.882485   -0.367281    0.699802
H       0.181455   -1.444938    1.595542
