17

O       0.678685    0.601072   -0.966770
C       0.008142   -0.248751   -0.080092
C       0.195535   -0.069210    1.457892
C      -1.304258   -0.331875    1.604261
C      -1.536787   -0.101365    0.107097
N      -1.818860   -1.437766    2.396244
C      -2.225860   -0.053405    2.743115
C      -1.730448    0.477170    3.989364
N      -1.326934    0.942336    4.968049
H       0.536854    1.511134   -0.684159
H       0.265316   -1.264626   -0.390236
H       0.869188   -0.750998    1.978579
H       0.456888    0.963388    1.715157
H      -1.869689    0.919666   -0.109424
H      -2.184851   -0.805301   -0.422257
H      -2.593893   -1.898832    1.923204
H      -3.236147    0.264130    2.497758
