25

O      -0.090032    1.503392    0.123341
C       0.029423    0.088081    0.103035
C      -1.369504   -0.503075   -0.006774
C      -1.367725   -2.035233   -0.043579
C      -2.763905   -2.660606   -0.100646
C      -3.571265   -2.350466   -1.379713
C      -4.644771   -3.467886   -1.480353
C      -4.206050   -4.573970   -0.477839
C      -2.771402   -4.198839   -0.067240
H       0.792700    1.878335    0.191170
H       0.642703   -0.247171   -0.750029
H       0.519282   -0.283200    1.018695
H      -1.963345   -0.147242    0.844597
H      -1.843480   -0.098032   -0.908206
H      -0.788465   -2.381637   -0.912045
H      -0.842282   -2.416219    0.843320
H      -3.339167   -2.301963    0.766665
H      -4.009324   -1.348839   -1.373779
H      -2.896847   -2.394996   -2.244681
H      -5.639604   -3.088447   -1.229626
H      -4.710818   -3.854580   -2.501398
H      -4.856179   -4.560965    0.403934
H      -4.273978   -5.579133   -0.903171
H      -2.051511   -4.579094   -0.805142
H      -2.482122   -4.608109    0.905973
