19

C      -0.001851    1.232412    0.303612
O       0.017135   -0.145659    0.014165
C       0.621575   -0.476753   -1.231783
C       2.125275   -0.520026   -1.145080
C       2.882682   -1.440778   -1.736544
C       2.339369   -2.577512   -2.556557
C       0.857477   -2.800199   -2.352878
O       0.428630   -2.969132   -1.001702
C       0.021678   -1.787511   -1.690615
H       1.006268    1.658297    0.417825
H      -0.527809    1.804842   -0.477423
H      -0.535358    1.354248    1.249489
H       0.324644    0.284632   -1.978362
H       2.590341    0.271741   -0.564699
H       3.963854   -1.391459   -1.633862
H       2.527143   -2.401325   -3.626149
H       2.876334   -3.504311   -2.313205
H       0.380326   -3.478178   -3.061404
H      -1.044810   -1.743489   -1.910041
