19

O       0.078354    0.109028    0.125885
C       0.013316    1.308207    0.065878
C      -1.232318    2.211357    0.129633
C      -0.502885    3.542760   -0.054951
C       0.716143    3.373829    0.966975
C       1.166298    2.302283   -0.113356
C       2.196613    1.799606   -1.158932
C       1.120473    2.260738   -2.246878
C       0.606290    3.256545   -1.145893
H      -1.935236    1.960761   -0.670949
H      -1.755190    2.122208    1.086496
H      -1.098336    4.455543   -0.063266
H       1.374984    4.242820    0.987691
H       0.478444    3.047347    1.984351
H       3.104890    2.403043   -1.217344
H       2.448067    0.737843   -1.119658
H       1.494301    2.698782   -3.174787
H       0.433522    1.444788   -2.482879
H       1.245871    4.143808   -1.198313
