16

N       0.306461    1.207201    0.461299
C      -0.103148   -0.123932   -0.035472
C      -1.574508   -0.163637   -0.091559
N      -2.727812   -0.185931   -0.146753
C       0.477942   -0.555213   -1.356303
C       0.046551   -0.365350   -2.651769
C       1.041049   -0.893927   -3.518459
C       2.051492   -1.392733   -2.730285
N       1.703595   -1.179476   -1.420387
H       1.320407    1.219560    0.537558
H       0.074733    1.900316   -0.246485
H       0.197284   -0.846400    0.736500
H      -0.888729    0.091521   -2.937059
H       1.012609   -0.914155   -4.596755
H       2.977044   -1.883328   -2.985067
H       2.242879   -1.479157   -0.626128
