19

C       0.034805    1.354770   -0.116343
O       0.023406   -0.061312   -0.046441
C      -1.249759   -0.613109    0.018543
O      -1.931832   -0.428468   -1.217282
C      -2.811887   -1.532407   -1.433577
C      -2.180613   -2.708571   -0.711032
C      -0.696751   -2.911891   -0.946257
C      -1.182351   -2.114684    0.235366
O      -1.047794   -2.574537    1.539108
H       1.079946    1.668150   -0.068756
H      -0.410248    1.712562   -1.051580
H      -0.511470    1.799137    0.729168
H      -1.821503   -0.143035    0.841705
H      -3.811801   -1.323552   -1.023255
H      -2.905520   -1.666938   -2.516437
H      -2.793010   -3.552072   -0.417336
H      -0.311291   -3.899165   -0.718484
H      -0.212128   -2.391983   -1.765717
H      -0.136382   -2.411713    1.808072
