17

C       0.144404    1.429043   -0.027364
N      -0.266387    0.046217   -0.249843
C       0.462700   -0.731175   -1.129978
C       0.694168   -2.079121   -1.190085
C       1.420831   -2.273207   -2.412533
O       1.888649   -3.445505   -2.931078
C       1.601377   -1.061489   -3.002314
N       2.256441   -0.593995   -4.137211
O       0.997977   -0.095895   -2.185611
H       1.147778    1.524772    0.414467
H       0.141060    1.963922   -0.978547
H      -0.580732    1.905032    0.636755
H      -0.477498   -0.454352    0.601071
H       0.386397   -2.826237   -0.474672
H       1.636652   -4.160910   -2.341149
H       1.788882   -0.832696   -5.004938
H       3.218933   -0.904755   -4.193667
