23

C       0.030511    1.391556    0.071601
O      -0.045650   -0.010134   -0.024220
C       0.648536   -0.570672   -1.129026
C       2.161729   -0.669763   -0.896131
C       2.863248   -1.193875   -2.158908
C       2.121000   -2.350817   -2.774381
C       0.872894   -2.683671   -2.446594
C       0.036399   -1.954242   -1.422323
C      -0.175044   -2.810819   -0.158463
H       1.052172    1.752329    0.261680
H      -0.340583    1.881882   -0.842629
H      -0.601136    1.692052    0.911676
H       0.478910    0.064955   -2.015792
H       2.571281    0.305581   -0.615127
H       2.347821   -1.347504   -0.055732
H       2.959798   -0.386085   -2.900256
H       3.892500   -1.492090   -1.922771
H       2.650438   -2.928009   -3.529272
H       0.403239   -3.542384   -2.922252
H      -0.958281   -1.778201   -1.854925
H       0.774262   -3.035202    0.337339
H      -0.821781   -2.292690    0.552119
H      -0.639971   -3.765837   -0.424128
