16

C      -0.072116    1.513948   -0.038606
C      -0.002469    0.008702    0.013943
N       0.042802   -0.628453   -1.163217
C       0.105455   -1.961570   -1.151066
C       0.126277   -2.722286    0.007254
O       0.190065   -4.091845    0.058876
C       0.079011   -2.059523    1.239616
O       0.096300   -2.749019    2.402506
C       0.013737   -0.672782    1.233729
H       0.800105    1.918967   -0.561763
H      -0.956911    1.836240   -0.596807
H      -0.112425    1.952862    0.961245
H       0.141453   -2.460012   -2.120893
H       0.218423   -4.449801   -0.833975
H       0.143372   -3.689576    2.186107
H      -0.023602   -0.142228    2.178028
