18

C      -0.093168    1.563800   -0.109512
C      -0.176057    0.050820   -0.256145
C      -0.168707   -0.828336    0.966127
C      -1.430561   -0.677398    0.150950
C       1.305270    2.075265    0.042814
C       2.018389    2.565888    1.113477
N       3.283643    2.875336    0.712481
N       3.405500    2.605639   -0.553553
N       2.214208    2.121441   -0.964781
H      -0.574770    2.045958   -0.970868
H      -0.665326    1.871833    0.771848
H       0.342641   -0.342318   -1.126949
H       0.365829   -1.770353    0.922580
H      -0.129787   -0.343239    1.936077
H      -2.240728   -0.092091    0.573962
H      -1.759789   -1.515483   -0.453012
H       1.694095    2.714343    2.131046
H       2.101170    1.856871   -1.930540
