24

C       0.306630    1.431810    0.508119
C       0.045869    0.024515   -0.037921
C       1.037307   -0.995509    0.511731
O      -1.250535   -0.450689    0.307262
C      -2.319723    0.136047   -0.401047
C      -3.589210   -0.625125   -0.035013
N      -4.738624   -0.036231   -0.709347
C      -5.077145   -0.595440   -2.015741
C      -5.920515   -0.881030   -0.822894
H       1.318067    1.760223    0.248173
H      -0.394562    2.163960    0.098014
H       0.210452    1.437152    1.598787
H       0.130405    0.049971   -1.138423
H       0.963397   -1.045838    1.602841
H       0.824627   -1.989270    0.109007
H       2.062727   -0.721280    0.246888
H      -2.452686    1.198195   -0.149365
H      -2.143186    0.077071   -1.488761
H      -3.452786   -1.693847   -0.277610
H      -3.746115   -0.554173    1.047015
H      -5.404050    0.116717   -2.767907
H      -4.463089   -1.411462   -2.394854
H      -5.870121   -1.887584   -0.410079
H      -6.874937   -0.380413   -0.686498
