10

O       0.108905    1.289038   -0.085066
C       0.069418   -0.037063   -0.049165
N       0.007905   -0.660878   -1.225759
C      -0.029063   -1.984337   -1.121561
N      -0.010138   -2.697293    0.008902
C       0.052513   -1.939275    1.089149
F       0.073617   -2.567819    2.240109
N       0.094903   -0.622784    1.153625
H       0.151453    1.597667    0.831799
H      -0.079899   -2.547691   -2.049738
