17

O      -0.041079    1.434645    0.220812
C       0.042586    0.032931    0.093075
C       0.607079   -0.540324    1.415014
C      -0.629312   -0.832274    2.222140
C      -1.731783   -0.823289    1.458961
C      -3.102820   -1.005653    1.913895
O      -4.069278   -0.869136    1.182745
C      -1.385719   -0.574255    0.000595
O      -2.246253    0.329367   -0.666399
H      -0.871961    1.685325   -0.209240
H       0.657767   -0.242845   -0.774386
H       1.185656   -1.459686    1.248328
H       1.275977    0.179381    1.896405
H      -0.616165   -1.028732    3.290098
H      -3.235543   -1.261826    2.985492
H      -1.353437   -1.534707   -0.539396
H      -3.145630    0.112174   -0.377364
