16

C       0.010561    1.423194   -0.007337
N       0.015062   -0.025858    0.046940
N       0.002690   -0.724832   -1.096882
C       0.011129   -2.004545   -0.704443
C       0.028753   -2.117169    0.704017
C       0.030970   -0.815942    1.161222
C       0.046596   -0.260916    2.546514
C       0.002228   -3.062108   -1.655594
N      -0.004555   -3.950979   -2.396710
H       0.906217    1.832813    0.469276
H      -0.003464    1.706453   -1.058469
H      -0.874921    1.828098    0.491778
H       0.038447   -3.018867    1.293422
H       0.930368    0.361669    2.727366
H      -0.836367    0.355949    2.749581
H       0.058352   -1.076431    3.271762
