19

C      -0.075373    1.555918   -0.070096
C       0.063213    0.052344    0.021109
O      -1.076488   -0.630457   -0.441992
C       1.354836   -0.706520   -0.224356
C       2.538258   -0.006592    0.397365
O       3.041921   -0.808533    1.477747
C       1.889351    0.012578    1.732305
C       1.964830    0.971836    2.877547
C       0.672751   -0.701044    1.172456
H       0.805523    2.075222    0.311427
H      -0.211488    1.860404   -1.115741
H      -0.953071    1.887996    0.493506
H      -1.201145   -0.399644   -1.369300
H       1.386871   -1.536278   -0.919688
H       3.229673    0.701564   -0.045144
H       2.936895    1.471238    2.895886
H       1.176814    1.728025    2.810832
H       1.839324    0.442507    3.828879
H       0.134733   -1.519361    1.634723
