14

N       0.006818    1.274199    0.456826
C      -0.017940    0.036525    0.110789
C      -1.287940   -0.660593   -0.000838
C      -1.493535   -1.981830   -0.157142
N      -0.581197   -3.015559   -0.163242
C       0.785889   -2.980415    0.146122
O       1.305771   -3.929188    0.681348
N       1.547191   -1.895850   -0.308776
C       1.229653   -0.666481   -0.315919
H       0.961888    1.640917    0.422861
H      -2.161272   -0.020152    0.028706
H      -2.513311   -2.337710   -0.260404
H      -0.959277   -3.942586   -0.019789
H       1.993329    0.018771   -0.702311
