18

C      -0.122241    1.401388    0.063797
N      -0.114527   -0.050913   -0.031458
C       0.611870   -0.608743   -1.075900
C       1.289916   -0.021393   -2.134316
C       1.762954   -1.126331   -2.872710
O       2.491324   -1.046954   -4.007954
N       1.431883   -2.291899   -2.346783
N       0.697474   -1.954567   -1.235012
C       0.156484   -2.983311   -0.384816
H       0.880975    1.839977    0.175896
H      -0.577081    1.820785   -0.838300
H      -0.732520    1.697007    0.920210
H       0.063326   -0.497003    0.858513
H       1.431397    1.024868   -2.339423
H       2.671099   -1.954377   -4.284459
H       0.828023   -3.237249    0.446662
H      -0.804970   -2.655057    0.020900
H       0.003389   -3.877274   -0.990553
