14

O       0.436260    0.953965    0.693423
C      -0.035855   -0.182347    0.023771
C      -1.511101   -0.080514   -0.250080
C      -2.055141   -0.674220   -1.311532
C      -1.238042   -1.432781   -2.273611
O      -1.657176   -2.152809   -3.130296
O       0.147524   -1.271461   -2.178636
C       0.713997   -0.415219   -1.272399
N       1.830738    0.137246   -1.455245
H       1.290931    1.161587    0.283161
H       0.121133   -1.086307    0.645506
H      -2.102139    0.461792    0.480784
H      -3.118199   -0.673791   -1.517816
H       2.239188   -0.100292   -2.358855
