20

C      -0.825670    1.290307   -0.140729
C       0.010846    0.019065   -0.073183
C       1.434711    0.019455   -0.701894
C       1.905402   -0.870657    0.469248
O       3.191876   -0.653245    1.035026
C       0.641673   -0.446553    1.282772
C       0.945113    0.639559    2.313065
O       1.703587    0.123376    3.391410
H      -0.286038    2.156326    0.255841
H      -1.098406    1.518721   -1.176999
H      -1.755075    1.186440    0.429713
H      -0.567743   -0.810863   -0.492640
H       1.560474   -0.357815   -1.719349
H       1.887685    1.017546   -0.645256
H       1.871583   -1.932646    0.211169
H       3.426304    0.270112    0.896057
H       0.123139   -1.262065    1.794888
H       1.457690    1.495999    1.839509
H       0.016585    1.033593    2.739739
H       2.474634   -0.299960    2.990253
