18

C       0.030732    1.419552    0.149635
C       1.516946    1.873872   -0.047322
C       2.137327    0.608812   -0.559057
C       3.318395   -0.000861   -0.565267
C       3.169489   -1.456491   -0.976308
C       1.645561   -1.720308   -0.777298
C       1.018819   -0.330110   -0.931653
O      -0.013938   -0.000041   -0.006364
H      -0.363167    1.655974    1.141446
H      -0.614196    1.904684   -0.598722
H       1.580235    2.704694   -0.758535
H       1.975862    2.208820    0.886983
H       4.271005    0.436591   -0.286604
H       3.470248   -1.619041   -2.020969
H       3.792026   -2.126357   -0.372746
H       1.242399   -2.467248   -1.465278
H       1.459248   -2.059787    0.246358
H       0.657197   -0.157284   -1.962561
