20

C       0.002228    1.572045    0.018193
C      -0.001069    0.041165    0.006031
C      -1.413642   -0.552535    0.007745
C      -1.420184   -2.079873    0.004453
N      -2.786389   -2.598007   -0.033570
C      -2.834526   -4.053266    0.012571
C      -4.217526   -4.538599    0.023696
N      -5.306353   -4.922372    0.056499
H       1.022198    1.968256    0.015238
H      -0.515213    1.975642   -0.858961
H      -0.504128    1.961822    0.908160
H       0.541601   -0.319653   -0.877591
H       0.553172   -0.333842    0.876504
H      -1.957577   -0.191212    0.892466
H      -1.974290   -0.196619   -0.864836
H      -0.898400   -2.448848   -0.889122
H      -0.848950   -2.457044    0.874742
H      -3.319193   -2.219526    0.743665
H      -2.337351   -4.451199   -0.881270
H      -2.312305   -4.498033    0.880708
