16

C      -0.002855    1.551958    0.034177
C      -0.013523    0.048143    0.013657
C      -1.189082   -0.685276    0.043667
N      -2.435287   -0.125179    0.137326
N      -1.100910   -2.036258    0.026049
C       0.119861   -2.782589   -0.015056
O       0.043730   -3.992573   -0.015874
N       1.270662   -2.034100   -0.051710
C       1.165230   -0.725481   -0.034080
H       1.025356    1.920791   -0.010625
H      -0.534185    1.991544   -0.821841
H      -0.454465    1.964460    0.945742
H      -2.503838    0.854242   -0.088495
H      -3.227393   -0.674678   -0.158538
H      -1.930372   -2.612075    0.075752
H       2.111770   -0.180455   -0.063814
