17

N      -0.015880    1.334624    0.026200
C      -0.054511   -0.028204   -0.012494
N      -1.117532   -0.741389    0.008299
C      -0.705269   -2.163391    0.023891
C       0.785727   -2.177862   -0.436875
C       1.266099   -0.783809   -0.013203
O       2.178862   -0.138332   -0.890359
C      -0.879711   -2.754250    1.353568
C      -1.004336   -3.242420    2.445210
H       0.806715    1.746989   -0.387706
H      -0.886833    1.806940   -0.163503
H      -1.336198   -2.718161   -0.680367
H       1.360385   -3.000850   -0.009037
H       0.831773   -2.236420   -1.528537
H       1.665830   -0.791950    1.012138
H       3.061665   -0.475811   -0.714099
H      -1.131974   -3.669084    3.409001
