21

C       0.073349    1.527195   -0.061783
C      -0.043191    0.025370    0.066312
C      -1.275750   -0.605912   -0.572611
C      -1.828729   -1.812268    0.190626
O      -2.734933   -2.460900   -0.692352
C      -0.708443   -2.739194    0.669457
C       0.192110   -2.015116    1.678597
C       0.671912   -0.682997    1.146443
O       1.186368   -0.686259   -0.188896
H       1.023466    1.877712    0.348943
H       0.024388    1.826496   -1.114821
H      -0.745294    2.028751    0.465737
H      -2.066443    0.142918   -0.682559
H      -1.009464   -0.935187   -1.583756
H      -2.369778   -1.444404    1.080877
H      -3.097174   -3.226936   -0.235656
H      -1.140263   -3.634500    1.133889
H      -0.121690   -3.067684   -0.194200
H      -0.353448   -1.834181    2.614873
H       1.057553   -2.636332    1.938080
H       1.258124   -0.083949    1.846802
