20

C      -0.060356    1.352069   -0.335867
O      -0.053787    0.041398    0.174967
C      -1.274209   -0.634134   -0.033479
C      -1.143594   -2.045292    0.532130
C      -2.429261   -2.821177    0.388781
O      -2.792099   -3.261504   -0.928800
C      -2.525511   -4.255601    0.067104
C      -1.354578   -5.176496   -0.160985
H       0.920403    1.788870   -0.131836
H      -0.237145    1.367092   -1.423188
H      -0.832883    1.974966    0.143362
H      -2.102157   -0.095270    0.461003
H      -1.515985   -0.682649   -1.107819
H      -0.320078   -2.550182    0.021419
H      -0.878688   -1.977304    1.594478
H      -3.269721   -2.392451    0.941691
H      -3.426992   -4.764322    0.417520
H      -0.472794   -4.638108   -0.512828
H      -1.098337   -5.703650    0.764566
H      -1.611778   -5.929595   -0.913272
