15

C      -0.361472    1.132770   -0.060107
C       1.124267    1.017190    0.226605
C       0.311799   -0.204972   -0.033731
O       0.109323   -1.036047    1.096518
C      -0.914602   -1.880777    1.022464
N      -1.231668   -2.669185    2.044640
N      -2.265115   -3.322693    1.517340
N      -2.577349   -2.984706    0.282771
N      -1.717026   -2.053259   -0.058441
H      -1.007032    1.374692    0.776161
H      -0.689916    1.518661   -1.018181
H       1.836099    1.328151   -0.529138
H       1.443518    1.178973    1.249656
H       0.433678   -0.760934   -0.956656
H      -2.776473   -4.026915    2.027498
