18

C       0.366316    0.946136   -0.753024
C       0.007704    0.039498    0.404492
O       0.672321   -0.023664    1.413688
C      -1.266905   -0.784365    0.294403
C      -1.782201   -1.302588   -1.079123
N      -0.545252   -2.185506   -1.113307
C      -1.104302   -2.327429    0.292142
C      -2.535991   -2.427599   -0.330931
O      -3.678639   -2.052569    0.386255
H       1.230842    1.558920   -0.494110
H       0.593034    0.327415   -1.627483
H      -0.482004    1.587681   -1.018887
H      -2.036028   -0.404966    0.969742
H      -2.109294   -0.731717   -1.948977
H      -0.742539   -3.035841   -1.653557
H      -0.619844   -2.947858    1.046135
H      -2.697011   -3.336199   -0.930186
H      -3.939903   -2.784514    0.954369
