18

C      -0.252157    0.737673    0.295077
O       0.958455    0.435870   -0.376484
C       0.794612   -0.417170   -1.487684
C       0.589831   -1.864110   -1.120243
C       1.689389   -2.723202   -0.475426
C       1.071362   -3.159532   -1.749160
O      -0.197288   -3.810322   -1.471734
C      -0.698719   -2.611329   -0.965894
N      -1.856737   -2.307887   -0.595520
H      -0.951475    1.271508   -0.366464
H      -0.759761   -0.160742    0.668310
H       0.007075    1.386220    1.135213
H      -0.039802   -0.078755   -2.121489
H       1.717784   -0.327580   -2.071369
H       2.677239   -2.277271   -0.543328
H       1.492233   -3.281513    0.433927
H       1.541389   -3.371036   -2.699644
H      -2.495742   -3.100546   -0.673617
