15

N       0.075757    1.430921    0.068855
C       0.009202    0.013704    0.013679
C      -1.108169   -0.726898    0.108873
O      -1.100537   -2.069008    0.136570
C       0.129185   -2.773969   -0.046612
N       0.083512   -4.036278   -0.146150
N       1.287685   -2.049365   -0.074840
C       1.249622   -0.750208   -0.041468
N       2.409205   -0.041376   -0.083766
H       0.332376    1.832309   -0.829185
H      -0.806971    1.839975    0.353608
H      -2.108587   -0.314124    0.197221
H      -0.882008   -4.355752   -0.090041
H       3.256032   -0.571683    0.052989
H       2.378176    0.900149    0.276239
