18

C       0.101963    1.647786   -0.078808
C       0.009038    0.117038   -0.012003
C       0.489903   -0.438536    1.327879
O      -0.417666    0.017167    2.323956
N      -1.353060   -0.346783   -0.237163
C      -1.821841   -0.735348   -1.437980
O      -1.200626   -0.773826   -2.488059
C      -3.291680   -1.165682   -1.401826
O      -3.972351   -1.147840   -0.408910
H       1.142382    1.970911    0.030020
H      -0.268680    2.005441   -1.042433
H      -0.486123    2.105549    0.720547
H       0.619443   -0.315708   -0.810388
H       0.508208   -1.536840    1.282282
H       1.513085   -0.084686    1.523240
H      -0.205918   -0.413518    3.156569
H      -1.994677   -0.351431    0.544578
H      -3.661817   -1.494622   -2.393360
