21

C      -0.104890    1.610912    0.003964
C      -0.003751    0.082584    0.004602
C       0.750128   -0.495287   -1.224803
C       2.237868   -0.071539   -1.332108
C       2.925597    0.076622    0.006753
C       2.239983   -0.165424    1.112015
C       2.184815    0.223616    2.567659
O       0.728936    0.205343    2.492058
C       0.773157   -0.471760    1.200073
H       0.880895    2.084828   -0.006853
H      -0.656715    1.957293   -0.876048
H      -0.627259    1.959900    0.898196
H      -1.020151   -0.329453   -0.001573
H       0.696629   -1.589826   -1.170373
H       0.228145   -0.209753   -2.144217
H       2.771012   -0.782655   -1.976453
H       2.315299    0.895206   -1.849809
H       3.934766    0.481530    0.024323
H       2.554678   -0.524439    3.283282
H       2.578502    1.209531    2.840906
H       0.534158   -1.537112    1.340422
