21

C      -0.388644    1.595782   -0.926961
C      -0.383294    0.079552   -0.749088
C      -1.630006   -0.440476   -0.050471
O      -2.474504    0.303184    0.405266
C      -1.820500   -1.934978   -0.000611
C      -2.829446   -2.484988    0.988001
C      -3.183755   -2.418107   -0.465798
O      -0.739241   -2.727990   -0.391152
C       0.184610   -3.025802    0.642115
H       0.533649    1.929922   -1.410400
H      -1.235263    1.915269   -1.540462
H      -0.480189    2.101697    0.037264
H      -0.287434   -0.447783   -1.706125
H       0.492145   -0.242664   -0.169610
H      -2.613849   -3.459432    1.410384
H      -3.282163   -1.762482    1.656293
H      -3.887254   -1.660417   -0.789378
H      -3.173593   -3.339958   -1.035367
H       0.977760   -3.625323    0.189881
H       0.629478   -2.120507    1.077818
H      -0.282324   -3.601876    1.451727
