16

C      -0.214264    1.472150    0.177267
C       0.125160    0.000845    0.056130
O       1.239367   -0.252210   -0.837691
C       2.036919   -0.825977    0.214808
C       0.892322   -0.669216    1.226841
O       1.202223    0.178688    2.322782
C       0.808259   -0.191991    3.559921
O       1.011307    0.474962    4.526962
H       0.637660    2.046169    0.547901
H      -0.500573    1.859024   -0.805055
H      -1.055657    1.618843    0.862621
H      -0.755021   -0.573103   -0.263122
H       2.346628   -1.853596   -0.007775
H       2.918652   -0.220290    0.454783
H       0.452181   -1.603350    1.588537
H       0.290092   -1.170914    3.567094
