20

C       0.004271    1.770502    0.012861
C       0.031403    0.253908   -0.038477
C       0.789213   -0.566709   -1.118059
C       2.064136   -0.151304   -0.352986
N       1.103002   -0.498823    0.799973
C       0.755280   -1.722705   -0.085737
C      -0.482664   -2.542913    0.258255
C      -0.383469   -3.140130    1.650594
O      -1.297220   -3.201685    2.430183
H       0.930054    2.253607   -0.305080
H      -0.800705    2.140507   -0.631252
H      -0.213653    2.098063    1.034756
H      -0.970366   -0.106104    0.202230
H       0.616566   -0.610462   -2.200103
H       2.930585   -0.816113   -0.407443
H       2.380075    0.890201   -0.372390
H       1.617100   -2.398208   -0.138044
H      -1.431882   -2.010780    0.182940
H      -0.526445   -3.384881   -0.448888
H       0.621102   -3.547154    1.908394
