17

C      -0.064214    1.552682   -0.058599
C       0.047622    0.040070    0.026550
O       0.776177   -0.473451   -1.083918
C       1.396679   -1.707805   -0.691833
C       1.837797   -1.474655    0.766799
C       0.811453   -0.454184    1.262548
O       0.631998   -0.093743    2.394622
C       0.479817   -2.845126   -0.824021
C      -0.278162   -3.772747   -0.920952
H       0.927858    2.005451   -0.140751
H      -0.655019    1.847869   -0.928924
H      -0.548255    1.927771    0.846875
H      -0.957796   -0.412934    0.065371
H       2.246591   -1.846051   -1.365665
H       1.853174   -2.367529    1.392010
H       2.829371   -1.010212    0.796991
H      -0.944306   -4.594701   -1.017055
