23

O       0.024822    1.326470    0.495868
C       0.000231    0.019434   -0.068329
C      -1.413543   -0.505123   -0.002827
C      -1.835634   -1.158703    1.288462
C      -1.585007   -2.014025    0.066150
C      -2.750164   -2.706868   -0.643811
C      -3.493362   -1.801827   -1.640172
C      -3.748808   -0.408823   -1.055945
C      -2.422483    0.318047   -0.795123
H       0.895885    1.702960    0.340395
H       0.336904    0.042194   -1.118548
H       0.674612   -0.658979    0.479218
H      -1.117828   -1.188400    2.101651
H      -2.864516   -1.040702    1.614346
H      -0.663053   -2.589108    0.087484
H      -2.377592   -3.593403   -1.168011
H      -3.461795   -3.077671    0.105204
H      -2.894265   -1.692931   -2.554550
H      -4.434000   -2.278082   -1.938163
H      -4.357588    0.189321   -1.742722
H      -4.331143   -0.495812   -0.129107
H      -2.591370    1.273607   -0.288045
H      -1.971115    0.563988   -1.767455
