17

C      -0.086283    1.564601   -0.008300
C       0.035332    0.034703    0.042398
C       0.844556   -0.497785   -1.159106
O       0.671527   -0.268182   -2.334933
N       1.836148   -1.288345   -0.615478
C       1.780421   -1.282555    0.790523
C       0.764075   -0.539179    1.242979
C       0.364546   -0.309213    2.662620
H       0.892303    2.038476    0.116638
H      -0.491674    1.867131   -0.977332
H      -0.748036    1.934059    0.780101
H      -0.973413   -0.396568   -0.034887
H       2.546870   -1.730613   -1.173817
H       2.507913   -1.852321    1.352282
H       1.035560   -0.830623    3.351847
H       0.381177    0.756541    2.923579
H      -0.656370   -0.662792    2.858676
