15

N       0.060588    1.327772    0.186299
C      -0.029276   -0.012954    0.038118
C      -1.154586   -0.782946    0.042530
C      -0.787358   -2.169934   -0.132746
O      -1.467759   -3.146639   -0.394980
C       0.745606   -2.275328    0.009861
O       1.278422   -3.170238   -0.933810
C       1.232360   -0.828867   -0.157238
H       0.926202    1.798700   -0.013133
H      -0.770401    1.895167    0.194045
H      -2.174196   -0.424267    0.094709
H       0.959607   -2.616770    1.037101
H       0.557263   -3.794911   -1.108558
H       1.622902   -0.692581   -1.172404
H       2.019083   -0.536932    0.546414
