19

C      -0.036036    1.610564    0.060740
C       0.005923    0.080871   -0.012298
C       0.724897   -0.533083    1.191999
C       0.777765   -2.097446    1.199716
N       1.441939   -2.712143    0.036274
C       1.476149   -2.534046    2.417356
C       2.077987   -2.839939    3.409513
C      -0.612850   -2.615625    1.236093
N      -1.710708   -2.973867    1.247254
H       0.972930    2.036246    0.091388
H      -0.549293    2.030629   -0.809079
H      -0.566405    1.948801    0.957095
H      -1.015578   -0.313171   -0.068001
H       0.509162   -0.219671   -0.939850
H       1.764809   -0.187891    1.234473
H       0.245133   -0.204959    2.120887
H       1.002712   -2.387680   -0.820093
H       2.412437   -2.411942    0.020446
H       2.598943   -3.131553    4.288418
