18

C       0.097362    1.503469   -0.026616
C      -0.080935   -0.009227    0.083044
C      -1.539525   -0.444660    0.044314
O      -2.461530    0.328964    0.064903
C      -1.755388   -1.958486   -0.024716
O      -3.124516   -2.250714    0.063954
C      -3.383399   -3.629502   -0.020036
C      -4.827546   -3.858805    0.083969
N      -5.957124   -4.082430    0.162659
H       1.155152    1.772035    0.036280
H      -0.298277    1.875783   -0.975124
H      -0.441530    2.015429    0.773747
H       0.463142   -0.535725   -0.713102
H       0.350030   -0.387198    1.021345
H      -1.323886   -2.326831   -0.972934
H      -1.183294   -2.441960    0.786739
H      -3.029670   -4.052667   -0.974894
H      -2.882032   -4.188662    0.787406
