20

O      -0.084759    1.497153   -0.140015
C       0.027765    0.095654    0.063001
C      -1.374898   -0.494825   -0.008259
C      -1.410323   -2.032346    0.049009
C      -0.896704   -2.650738    1.342936
C      -1.776573   -3.482891    1.903764
C      -3.041410   -3.519086    1.112229
N      -3.716343   -2.186832    1.070055
C      -2.829278   -2.602949   -0.038461
H       0.790261    1.884871   -0.047842
H       0.668495   -0.366075   -0.707858
H       0.485485   -0.124360    1.040210
H      -1.986174   -0.090841    0.803614
H      -1.829155   -0.160369   -0.948935
H      -0.820556   -2.418935   -0.796925
H       0.076905   -2.408863    1.754347
H      -1.630632   -4.036999    2.823327
H      -3.651873   -4.413751    1.053032
H      -4.680208   -2.321773    0.767863
H      -3.269528   -2.787466   -1.012747
