15

C      -0.043907    1.390013   -0.040664
O      -0.004000   -0.018161   -0.011544
C       0.668814   -0.519972    1.118893
C       0.642370   -2.042298    1.027894
C       1.339990   -2.705683    2.193840
F       0.770318   -2.378808    3.367495
F       1.301349   -4.041836    2.088984
F       2.633821   -2.346622    2.270731
H       0.967087    1.825732   -0.069554
H      -0.581480    1.681991   -0.945634
H      -0.569841    1.800950    0.835308
H       1.709612   -0.159904    1.149408
H       0.179415   -0.186907    2.048078
H      -0.390878   -2.398788    1.004733
H       1.133503   -2.371456    0.108285
