15

N       0.424392    1.189268   -0.842462
C      -0.339057    0.647615    0.016450
N      -1.456247   -0.059542   -0.390420
C      -2.315922   -0.698596    0.484369
O      -2.163614   -0.715059    1.686237
N      -3.343852   -1.372496   -0.198463
C      -4.625430   -1.529027    0.458537
C      -4.495000   -0.635608   -0.730797
H       1.193311    1.667111   -0.376683
H      -0.236961    0.658792    1.103542
H      -1.605729   -0.150222   -1.385172
H      -5.084034   -2.507101    0.351930
H      -4.730829   -1.065736    1.434898
H      -4.527659    0.437190   -0.558278
H      -4.846746   -0.957730   -1.706442
