21

C      -0.302252    1.609094   -0.125320
C       0.002905    0.119685   -0.035302
C       1.101715   -0.573070   -0.901690
C       2.384733    0.184876   -0.517020
C       2.341719   -0.272932    0.959184
C       3.239319    0.337524    1.995438
O       2.525887   -1.720525    0.773118
C       1.195727   -1.683875    0.256813
C       0.775142   -0.500289    1.143791
H       0.576433    2.234633    0.054232
H      -0.702245    1.871615   -1.111213
H      -1.056102    1.888167    0.619235
H      -0.933152   -0.442961   -0.145763
H       0.930054   -0.821974   -1.948014
H       3.287377   -0.199464   -0.997040
H       2.322401    1.263386   -0.673519
H       3.025068    1.405571    2.104251
H       3.100738   -0.145415    2.966822
H       4.289425    0.227316    1.704313
H       0.693908   -2.644508    0.153123
H       0.395970   -0.603786    2.160299
