16

O       0.014060    1.342993   -0.105543
C       0.051304   -0.019868   -0.050023
C       0.125038   -0.827117   -1.160248
N       0.248409   -2.129896   -0.674343
C      -0.001802   -3.466632   -1.170205
C       0.317267   -4.267611    0.116955
O       0.085108   -3.358071    1.213602
C       0.166655   -2.111099    0.681781
C       0.066075   -0.824912    1.142653
H      -0.059585    1.680676    0.791189
H       0.211711   -0.586347   -2.204774
H      -1.043919   -3.592058   -1.494620
H       0.658703   -3.741366   -1.997157
H      -0.319472   -5.141766    0.258749
H       1.369458   -4.575102    0.129810
H       0.014420   -0.491792    2.166357
