18

C      -0.131920    1.556088   -0.075031
C       0.023725    0.045139   -0.054375
C       0.745183   -0.647739   -1.215378
N       2.152595   -0.176335   -1.182872
C       1.728583   -1.294280   -0.313430
C       1.119234   -0.590590    0.935238
N       1.925731    0.366065    1.668874
C       0.517743   -1.551458    1.856474
N       0.051339   -2.335307    2.566641
H       0.797803    2.044615   -0.375441
H      -0.913104    1.843906   -0.786797
H      -0.413359    1.931278    0.912330
H      -0.936500   -0.441621    0.133966
H       0.307491   -1.020123   -2.132693
H       2.638079   -0.576887   -1.983573
H       2.205229   -2.265907   -0.355441
H       2.537762   -0.111248    2.323938
H       2.512921    0.849609    0.993442
