14

O      -0.006601    1.416328    0.007194
C       0.022568    0.004950    0.001725
C      -1.398846   -0.460290    0.012236
C      -2.566320    0.243038    0.023893
N      -3.620185   -0.643049    0.030034
N      -3.181692   -1.848087    0.022929
N      -1.803309   -1.776155    0.011882
C      -1.000673   -2.933213    0.001930
O      -1.419072   -4.051621    0.002144
H       0.899415    1.738607    0.000273
H       0.539019   -0.387512   -0.890231
H       0.554345   -0.394083    0.881669
H      -2.713414    1.308922    0.028211
H       0.073093   -2.672293   -0.006401
