20

C      -0.026776    1.361580   -0.059002
O       0.006605   -0.044607    0.027817
C      -1.272731   -0.630981   -0.009198
C      -1.116089   -2.147554    0.112667
C      -0.381889   -2.516149    1.413564
O      -0.422627   -3.898158    1.716136
C      -2.505072   -2.827973    0.035305
C      -2.428558   -4.229424   -0.370200
N      -2.362122   -5.322859   -0.738820
H       1.006442    1.714417   -0.029075
H      -0.492418    1.699496   -0.997847
H      -0.581342    1.808466    0.780783
H      -1.899780   -0.247003    0.816705
H      -1.787991   -0.375585   -0.951384
H      -0.518315   -2.485359   -0.743154
H       0.643924   -2.130781    1.369738
H      -0.879636   -2.020536    2.256689
H       0.026217   -4.385847    1.017324
H      -3.013864   -2.766572    1.003845
H      -3.138332   -2.308873   -0.694148
