18

C       0.490429    1.425341   -0.395805
C      -0.087707    0.123549    0.161375
O      -0.069775   -0.911453   -0.840480
C       1.125535   -1.665299   -0.733291
C       1.614426   -1.493341    0.703778
O       2.538687   -2.051414    1.231642
C       0.702723   -0.460375    1.321893
C       1.060140    0.232290    2.581134
N       0.090257   -0.867282    2.611218
H       1.554144    1.318153   -0.632560
H      -0.039345    1.703896   -1.310624
H       0.387027    2.240454    0.327242
H      -1.141607    0.270659    0.424543
H       0.914959   -2.716165   -0.955137
H       1.903337   -1.319572   -1.432467
H       2.017899    0.000647    3.038801
H       0.708442    1.251933    2.717774
H      -0.855970   -0.491244    2.652520
