15

N       0.089607    1.339004    0.091290
C      -0.047374   -0.020718    0.032269
C      -1.135319   -0.809851    0.079210
C      -0.724995   -2.224526    0.023297
O      -1.408617   -3.220587   -0.062185
N       0.676158   -2.225281    0.090385
C       1.218314   -0.881304   -0.004326
C       2.024545   -0.630198   -1.200628
C       2.699688   -0.406142   -2.169550
H       0.909137    1.718731   -0.361880
H      -0.744589    1.881972   -0.073565
H      -2.171010   -0.507171    0.119515
H       1.179399   -3.007495   -0.297574
H       1.828330   -0.642086    0.880235
H       3.292585   -0.224788   -3.032509
