19

C      -0.244966    1.316329   -1.180690
C      -0.038801    0.281206   -0.089701
C       0.922072   -0.887852   -0.419151
C       1.805288   -0.295252    0.695594
O       0.854866    0.765114    0.953644
C      -1.394576   -0.138383    0.524453
O      -2.190902   -0.761909   -0.445848
C      -1.225989   -1.044445    1.727472
O      -1.739802   -2.139078    1.761438
H       0.711014    1.586620   -1.637972
H      -0.912178    0.920403   -1.951204
H      -0.694033    2.223020   -0.761837
H       0.520184   -1.885038   -0.233657
H       1.347941   -0.857975   -1.422657
H       1.957085   -0.929975    1.577149
H       2.775301    0.102534    0.377416
H      -1.876407    0.783069    0.902483
H      -2.437730   -1.619656   -0.062817
H      -0.623203   -0.648455    2.563800
