14

O       0.003706    1.481842    0.010615
C       0.016903    0.061665    0.002089
C      -1.349879   -0.438987    0.012465
C      -2.473541   -0.885980    0.020777
C      -3.738788   -1.382763    0.030175
C      -4.863229   -1.825219    0.038524
C      -6.227477   -2.339757    0.048799
C      -6.289920   -3.808058    0.041905
N      -6.355639   -4.960529    0.036467
H       0.919953    1.777706    0.003950
H       0.530044   -0.333003   -0.890413
H       0.547309   -0.343473    0.879678
H      -6.766988   -1.977647    0.934171
H      -6.783623   -1.968633   -0.822438
