16

C       0.635628   -0.254074   -0.466585
C      -0.261763    0.872649   -0.009044
O       0.110937    2.014774    0.125245
C      -1.725160    0.555476    0.228330
O      -2.144549   -0.811579    0.251792
C      -2.223336   -0.075827    1.464853
C      -1.309964   -0.480227    2.611520
C      -1.843214   -1.618983    3.359477
N      -2.276103   -2.512783    3.949041
H       1.677591    0.065308   -0.431959
H       0.480255   -1.166093    0.114351
H       0.369312   -0.509960   -1.500116
H      -2.398864    1.246233   -0.279189
H      -3.239614    0.168081    1.774708
H      -0.310453   -0.730735    2.246932
H      -1.200475    0.369397    3.296114
