21

C      -0.066532    1.547628    0.029352
C      -0.076418    0.040918    0.056914
C       1.129307   -0.791347   -0.310070
C       0.547313   -0.951932    1.074358
C       1.342945   -0.695856    2.328325
C      -0.695361   -1.812326    1.004126
C      -1.929709   -1.024946    1.337239
O      -2.027002   -0.055603    2.342669
C      -1.323058   -0.813165   -0.019838
H       0.894744    1.950726    0.365808
H      -0.236602    1.921177   -0.987632
H      -0.855084    1.969128    0.662445
H       1.043408   -1.592979   -1.039668
H       2.070601   -0.248830   -0.357704
H       2.024031    0.153384    2.207286
H       0.692313   -0.493446    3.186233
H       1.955147   -1.567977    2.587816
H      -0.695494   -2.897160    0.955925
H      -2.846266   -1.608489    1.329690
H      -1.211958    0.455402    2.342834
H      -1.855225   -1.051078   -0.936016
