19

C      -0.092033    1.543388   -0.012024
C       0.047856    0.015709    0.032788
N       0.966700   -0.499827   -1.046286
C       1.931506   -1.290792   -0.240999
C       1.067476   -2.019117    0.829006
C       0.804414   -0.547523    1.273889
C       2.287402   -0.277729    0.871575
C      -1.292878   -0.582445   -0.077709
N      -2.347366   -1.045372   -0.185576
H       0.887822    2.014590    0.079032
H      -0.530326    1.853548   -0.963804
H      -0.736579    1.897629    0.798294
H       0.455399   -1.102306   -1.684653
H       2.681185   -1.790195   -0.853445
H       0.218974   -2.618244    0.489606
H       1.658218   -2.571862    1.561762
H       0.392698   -0.286132    2.247612
H       2.983294   -0.681755    1.607804
H       2.588499    0.725069    0.566329
