16

O      -0.047435   -0.002945   -0.049889
C      -0.012122    1.192075   -0.010161
C      -1.230229    2.153754    0.230925
C      -0.595954    3.283659    1.032034
C       0.719840    3.255345    0.822068
C       2.092208    3.333754    1.430194
C       2.356007    2.006918    2.046526
N       2.559266    2.129354    0.592361
C       1.183658    2.165802   -0.078534
H      -1.642514    2.460663   -0.740496
H      -2.029665    1.632789    0.766865
H      -1.144818    3.882269    1.749276
H       2.725213    4.200511    1.575973
H       3.293427    1.876550    2.579410
H       1.524980    1.423239    2.433356
H       1.347862    2.450390   -1.124984
