15

O      -0.086107    1.376001   -0.007000
C       0.025121    0.012275   -0.009350
C      -1.041641   -1.033449    0.063210
C      -0.493011   -1.765113   -1.157139
C       0.809098   -0.924098   -0.995397
O       1.762646   -1.652150   -0.216246
C       1.284541   -1.764851    1.070038
O       1.849534   -2.399656    1.912490
C       0.054300   -0.923643    1.169071
H       0.703411    1.754737    0.397873
H      -2.074992   -0.934304    0.370373
H      -0.358993   -2.849286   -1.110474
H      -1.040646   -1.490188   -2.062121
H       1.300638   -0.517064   -1.875579
H      -0.289269   -0.609779    2.145148
