17

N       0.220501   -0.926487    0.987246
C       0.105350    0.147755    0.568804
C       0.007142    1.469448    0.031083
C      -1.138421    2.153561    0.157370
C      -1.368496    3.533033   -0.380621
C      -0.109053    4.223366   -0.858818
N       0.957849    4.370583    0.145102
C       1.163195    3.468935   -0.999779
C       1.239063    1.991727   -0.678375
H      -1.971995    1.685857    0.672840
H      -2.086627    3.470588   -1.211760
H      -1.860179    4.144726    0.387907
H      -0.273753    5.053693   -1.541746
H       1.460324    5.242412    0.004000
H       1.850760    3.794387   -1.777272
H       2.125586    1.790161   -0.064790
H       1.379267    1.425479   -1.608801
