17

C      -0.043286    1.572834    0.013511
C       0.040200    0.052671   -0.099961
N      -1.298719   -0.540304    0.039484
C      -1.880649   -0.726656    1.439345
C      -2.805989   -1.788587    0.790112
C      -1.410778   -2.052918    0.166565
C      -0.825574   -1.856433    1.593092
O       0.073993   -2.204718    2.290690
H       0.936611    2.023760   -0.168302
H      -0.754363    1.976408   -0.712679
H      -0.368854    1.877956    1.013466
H       0.397866   -0.227650   -1.097714
H       0.769029   -0.341208    0.625919
H      -2.142822    0.113633    2.079046
H      -3.227763   -2.558056    1.437795
H      -3.520976   -1.364558    0.084178
H      -1.132621   -2.722352   -0.645656
