21

C       0.053064    1.435376   -0.091336
C      -0.039816   -0.072139    0.066891
O       0.746340   -0.453201    1.180521
C       0.728404   -1.823901    1.424952
C       1.529908   -2.147387    2.685306
O       1.881693   -1.313976    3.474298
C       1.840689   -3.635343    2.844975
O       2.290639   -3.898119    4.137344
C       2.646057   -5.247682    4.329542
H       1.090545    1.739733   -0.254395
H      -0.546123    1.765631   -0.945046
H      -0.313293    1.937093    0.808332
H      -1.087098   -0.384419    0.219275
H       0.318100   -0.581941   -0.844066
H      -0.301132   -2.200185    1.582272
H       1.135182   -2.403401    0.574694
H       0.940345   -4.226558    2.591642
H       2.600715   -3.899639    2.084264
H       2.983340   -5.347912    5.363437
H       1.792179   -5.924241    4.165459
H       3.461801   -5.555053    3.656080
