19

C      -0.279506    1.442597    0.477718
C      -0.003131    0.016526    0.036256
C       1.368357   -0.316630   -0.507105
C       0.959507   -0.798817    0.863235
C      -1.238034   -0.676632   -0.582081
C      -1.585577    0.031000   -1.901453
O      -2.496991    0.801922   -2.032192
C      -1.062299   -2.097126   -0.855471
C      -0.929112   -3.257705   -1.141310
H       0.627669    1.899756    0.882825
H      -0.630908    2.068292   -0.348918
H      -1.046832    1.469995    1.260102
H       1.444624   -1.064188   -1.288858
H       2.090059    0.489393   -0.583143
H       1.393795   -0.316252    1.732102
H       0.766659   -1.858422    0.982141
H      -2.093533   -0.528971    0.088654
H      -0.894048   -0.213190   -2.736333
H      -0.820248   -4.288699   -1.372872
