20

C      -0.219440    1.543154   -0.140982
C       0.103378    0.050984   -0.016357
N       0.725321   -0.512171   -1.200723
C       0.042164   -0.677190   -2.451371
C       0.446116    0.238760   -3.583357
C       1.074254   -1.133575   -3.452278
C       2.382328   -1.269318   -2.694578
C       2.071262   -0.790548   -1.266065
O       2.863763   -0.658220   -0.356624
H       0.693649    2.123468   -0.302962
H      -0.902398    1.737071   -0.973788
H      -0.695140    1.903162    0.776655
H       0.809693   -0.119005    0.800000
H      -0.811217   -0.514260    0.205747
H      -0.956524   -1.098260   -2.397737
H      -0.256399    0.380349   -4.398030
H       1.040368    1.112661   -3.335187
H       0.816360   -1.881495   -4.191480
H       2.729097   -2.306832   -2.652125
H       3.203451   -0.672563   -3.102378
