15

O      -0.224151    0.035621    0.336943
C      -0.177485    1.196710    0.075834
C      -1.198664    2.322034   -0.212430
C       0.005338    3.275095   -0.057998
C       0.451815    3.713959    1.362524
C       1.541504    2.588452    1.293103
C       1.618956    1.650215    2.404379
N       1.685386    0.952463    3.323052
N       0.943217    2.092388    0.002807
H      -1.648550    2.295801   -1.207844
H      -1.990614    2.393123    0.536419
H       0.185416    3.989786   -0.861804
H       0.843491    4.727047    1.457497
H      -0.295610    3.541891    2.139613
H       2.543778    2.982377    1.102302
