21

C      -0.172260    1.659471   -0.067028
C      -0.002299    0.151992   -0.018913
C       1.171926   -0.571937   -0.774684
C       2.401703    0.022916   -0.097654
C       2.081679    0.029252    1.205156
C       2.851817    0.452243    2.408071
C       0.668141   -0.566541    1.210895
C       0.916446   -1.768648    0.235856
O      -0.231289   -2.556766    0.040667
H       0.757796    2.184757    0.166071
H      -0.500028    1.978913   -1.062900
H      -0.937256    1.985604    0.646880
H      -0.947197   -0.343799   -0.254496
H       1.173741   -0.713287   -1.856695
H       3.324586    0.324547   -0.574533
H       3.845638    0.819474    2.135175
H       2.334080    1.249689    2.956843
H       2.979467   -0.376787    3.116127
H       0.155719   -0.703815    2.164121
H       1.799135   -2.382404    0.456723
H      -0.033917   -3.209947   -0.637864
