18

C      -0.020001    1.486686    0.061674
C       0.009740   -0.007957    0.003982
C      -0.025813   -0.759518   -1.112037
C       0.012782   -2.200027   -0.792722
O       0.019686   -3.123465   -1.574439
C       0.051197   -2.313307    0.739067
C       0.078546   -0.871232    1.225296
C       0.790825   -0.426122    2.458590
N      -0.671984   -0.530715    2.454149
H       0.889282    1.884822    0.527202
H      -0.104229    1.916728   -0.938258
H      -0.866817    1.853073    0.654962
H      -0.073005   -0.390977   -2.129343
H      -0.836804   -2.838368    1.101782
H       0.925408   -2.894535    1.046364
H       1.301739   -1.171397    3.062391
H       1.250069    0.558855    2.473791
H      -1.087980    0.394506    2.374634
