16

C       0.124239    1.575264   -0.038323
C       0.103167    0.062878    0.060943
N       1.093731   -0.653592   -0.784688
C       1.327364   -1.659472    0.270911
C       2.720334   -2.065481    0.443575
N       3.826323   -2.365695    0.593288
C       0.736182   -0.634291    1.308896
O       1.668465    0.100363    2.041021
H       1.119562    1.972016    0.175704
H      -0.159038    1.895763   -1.046156
H      -0.583247    2.017548    0.670204
H      -0.923380   -0.310335   -0.078735
H       0.768250   -1.015167   -1.674697
H       0.699006   -2.558980    0.207043
H       0.037579   -1.056427    2.031600
H       2.375485    0.388746    1.451483
