25

C      -1.874411   -0.321747    1.403441
C      -0.739400    0.030146    0.463916
C      -0.248411    1.451782    0.318709
C       0.685159    0.389935    0.850172
C       1.358124    0.402792    2.229495
C       2.699712    1.153099    2.081113
C       0.551960    1.075153    3.354903
C       1.635593   -1.064273    2.607439
O       2.361214   -1.107008    3.829497
H      -1.942031    0.360889    2.252314
H      -2.829685   -0.267085    0.868756
H      -1.779447   -1.340050    1.797744
H      -0.789828   -0.530838   -0.467167
H      -0.069875    1.864750   -0.668637
H      -0.647267    2.170818    1.027393
H       1.396673    0.042206    0.102123
H       2.526490    2.200789    1.815293
H       3.266525    1.117786    3.014335
H       3.317869    0.706394    1.294134
H      -0.374112    0.541581    3.579938
H       1.149357    1.085445    4.269571
H       0.302129    2.110151    3.103663
H       0.678982   -1.601482    2.699795
H       2.207046   -1.544027    1.796146
H       2.527320   -2.027814    4.048668
