13

N       0.013510    1.309753    0.140494
C      -0.000679   -0.064976    0.024505
N      -1.083667   -0.804827   -0.011555
N      -0.562510   -2.076035   -0.005340
N      -1.080316   -3.322358   -0.038693
C       0.043964   -4.043340   -0.041363
N       1.234230   -3.357749   -0.020883
C       0.779687   -2.120232    0.002465
N       1.175007   -0.799506    0.008588
H       0.605565    1.778294   -0.534465
H      -0.926822    1.683653    0.116164
H       0.006505   -5.121969   -0.058539
H       2.096520   -0.448710    0.203005
