20

C       1.163916    0.915817    0.863857
C       0.088650    0.507536   -0.148649
C       0.670454   -0.246433   -1.338857
C       1.148850   -1.692954   -1.132855
N      -0.054304   -2.490243   -0.800110
C       0.267113   -2.192052   -2.218362
C      -0.292210   -0.788519   -2.495766
C      -1.778350   -0.598066   -2.327255
O      -2.415296    0.245972   -2.910330
H       1.684856    0.039423    1.264867
H       1.915769    1.569149    0.406659
H       0.725579    1.454109    1.709443
H      -0.660515   -0.123024    0.341197
H      -0.436069    1.399571   -0.512416
H       1.459218    0.346411   -1.812748
H       2.132303   -2.028847   -0.828550
H       0.251428   -3.444456   -0.614600
H       0.420472   -2.990834   -2.933112
H       0.005944   -0.377207   -3.461684
H      -2.259750   -1.295361   -1.610790
