14

N       0.017401    1.384787   -0.019155
C      -0.019408    0.020897   -0.027491
C      -1.229385   -0.686469   -0.039382
C      -1.112233   -2.066066   -0.090494
O      -2.221299   -2.824256   -0.104812
N       0.059184   -2.706895   -0.126682
C       1.135332   -1.914379   -0.108576
O       2.328724   -2.528414   -0.141094
N       1.176190   -0.594438   -0.058115
H       0.911969    1.798428    0.188596
H      -0.799975    1.894275    0.269196
H      -2.196176   -0.203222   -0.017787
H      -1.918943   -3.742329   -0.142568
H       2.141636   -3.475680   -0.173479
