19

C      -0.408504    1.532356   -0.304764
C       0.001262    0.091628    0.031348
C       0.882594   -0.515865   -1.024339
O       0.282199   -0.813953   -2.312636
C       0.819857   -1.894696   -1.554596
C       2.174928   -2.352329   -2.068267
C       2.995073   -1.047326   -2.182056
C       2.311815   -0.055277   -1.232671
O       2.829103    0.888633   -0.689645
H       0.471679    2.175424   -0.377597
H      -0.942957    1.566660   -1.258709
H      -1.067014    1.936100    0.469507
H       0.543369    0.070400    0.983880
H      -0.888053   -0.536765    0.150787
H       0.092658   -2.608783   -1.174703
H       2.626108   -3.038749   -1.343288
H       2.085568   -2.887534   -3.017971
H       4.046977   -1.157968   -1.913654
H       2.954882   -0.635023   -3.195240
