17

C       0.065595    1.575731    0.070003
C      -0.057305    0.089703   -0.050233
C       0.401276   -0.718357   -1.300249
C      -0.533534   -1.806500   -0.778081
O      -0.991140   -2.939930   -1.408113
C      -0.418149   -1.690591    0.782452
O       0.521111   -0.661259    1.065532
C      -1.371292   -0.831624    0.010862
O      -2.716128   -0.595808   -0.009086
H       1.120660    1.870699    0.062781
H      -0.435649    2.069726   -0.767318
H      -0.380582    1.929980    1.003958
H       0.022850   -0.281844   -2.228195
H       1.475805   -0.917803   -1.368046
H      -0.309488   -3.619014   -1.349812
H      -0.540363   -2.527090    1.458609
H      -2.988980   -0.293964    0.865264
