21

C      -0.085935    1.562461    0.070873
C       0.018487    0.039939    0.008569
C      -1.345710   -0.581309   -0.292142
C       1.137508   -0.565522   -0.916651
C       1.752063   -1.284853    0.285759
C       2.165768   -0.291179    1.321666
C       0.697561   -0.657074    1.227872
C      -0.000632   -1.236116    2.324777
C      -0.610854   -1.714398    3.246860
H       0.876809    2.036036    0.282672
H      -0.448245    1.962717   -0.883009
H      -0.790521    1.871435    0.850993
H      -1.723657   -0.222852   -1.256052
H      -1.284700   -1.673256   -0.332990
H      -2.075693   -0.319388    0.480582
H       0.726851   -1.238231   -1.672533
H       1.797774    0.154728   -1.411823
H       2.111426   -2.306348    0.296258
H       2.667700   -0.695534    2.193915
H       2.504844    0.699740    1.030258
H      -1.144607   -2.140063    4.059717
