19

N       0.147471    1.269025   -0.454243
C       0.047565   -0.075171    0.072252
C      -0.053331   -0.228987    1.608624
O      -1.269730   -1.022352    1.465191
C      -1.281709   -0.826546    0.089547
N      -2.137200   -1.136768   -0.769731
C      -3.332275   -1.811979   -0.377430
C      -4.576243   -1.521455   -1.186120
C      -3.878386   -2.845191   -1.336751
H       0.198258    1.235914   -1.467808
H      -0.694560    1.793904   -0.232414
H       0.852163   -0.679701   -0.356032
H       0.734515   -0.794914    2.110542
H      -0.251442    0.705328    2.142109
H      -3.466768   -2.005589    0.683939
H      -5.524128   -1.486365   -0.660815
H      -4.470851   -0.803665   -1.990964
H      -3.306701   -3.011864   -2.241920
H      -4.339735   -3.731370   -0.915576
