19

C      -0.104304    1.570704   -0.100122
C      -0.001466    0.061392    0.058999
C       0.984304   -0.701134   -0.869039
C       0.745390   -1.216026   -2.250195
O       2.299428   -0.224653   -0.533904
C       1.718007   -1.256888    0.285434
C       0.797670   -0.532320    1.250787
C       1.030552   -0.062788    2.613035
O       0.161037   -1.177925    2.336204
H       0.892703    2.018710   -0.118219
H      -0.619229    1.836666   -1.029671
H      -0.668229    2.015994    0.726178
H      -0.988269   -0.415418    0.041521
H       0.635630   -0.389149   -2.960911
H       1.586040   -1.834011   -2.576420
H      -0.169604   -1.815692   -2.287424
H       2.269738   -2.181285    0.415007
H       1.960305   -0.310432    3.122938
H       0.528316    0.835321    2.969192
