17

C      -0.100365    1.545331    0.101581
C       0.021940    0.034028   -0.010464
C       0.753035   -0.604750    1.164869
O      -1.347878   -0.463915   -0.077614
C      -1.540069   -1.661575   -0.614694
N      -0.616201   -2.455603   -1.093597
O      -1.300784   -3.561727   -1.552074
N      -2.643756   -3.438598   -1.347786
C      -2.815965   -2.284722   -0.773682
H       0.894357    1.998733    0.131736
H      -0.643550    1.956378   -0.753089
H      -0.633099    1.821371    1.016802
H       0.513897   -0.241216   -0.949569
H       0.803427   -1.689611    1.052330
H       1.776412   -0.220664    1.215784
H       0.247370   -0.365251    2.105464
H      -3.792487   -1.923059   -0.494646
