21

C      -0.181924    1.461700   -0.088165
C       0.032013   -0.049149    0.029166
C       0.847107   -0.401993    1.278553
O      -1.272847   -0.632192    0.097504
C       0.723974   -0.560851   -1.219017
C       0.083634   -0.843631   -2.539044
C       0.883417   -1.933027   -1.843713
C       2.362623   -1.578397   -1.922877
O       2.115144   -0.243712   -1.399289
H       0.773718    1.968958   -0.245986
H      -0.838098    1.681338   -0.934250
H      -0.645516    1.851466    0.822350
H       0.341972   -0.029316    2.173892
H       0.960030   -1.489208    1.369647
H       1.848312    0.031112    1.223051
H      -1.165182   -1.554340    0.355238
H      -0.990556   -0.984862   -2.499865
H       0.469377   -0.369390   -3.437850
H       0.468824   -2.896393   -1.577257
H       2.995051   -2.148760   -1.233150
H       2.827937   -1.552788   -2.915659
