18

C       0.125826    1.553263   -0.068588
C      -0.017763    0.036528    0.076711
O       0.454494   -0.605897   -1.100229
C       1.421529   -1.609078   -0.776825
C       1.627039   -1.509326    0.705531
C       0.804661   -0.578552    1.189928
N       0.606719   -0.146688    2.501150
C       1.247352   -0.621361    3.616813
O       2.088458   -1.489904    3.624396
H       1.179376    1.831378   -0.160890
H      -0.404515    1.886343   -0.964587
H      -0.305072    2.083216    0.789289
H      -1.087896   -0.202595    0.218819
H       1.045908   -2.599538   -1.081048
H       2.340324   -1.422653   -1.352976
H       2.318890   -2.110766    1.272143
H      -0.070524    0.586000    2.648045
H       0.896534   -0.104071    4.530749
