25

C       0.128945    1.552564   -0.216153
C       0.055426    0.023910   -0.190011
C      -1.358384   -0.500625    0.132979
C      -1.464800   -1.998733    0.122727
C      -1.619500   -2.825613    1.167210
C      -1.735995   -2.482203    2.620085
C      -1.736100   -4.270430    0.722506
C      -1.285750   -4.237555   -0.755422
C      -1.459784   -2.764219   -1.188688
H       1.142176    1.900254   -0.441097
H      -0.542342    1.968522   -0.975965
H      -0.162932    1.980258    0.749716
H       0.382060   -0.374780   -1.158144
H       0.757734   -0.370846    0.554308
H      -1.668568   -0.098696    1.104406
H      -2.059510   -0.084626   -0.605975
H      -2.685755   -2.846173    3.034459
H      -0.941685   -2.966138    3.203580
H      -1.678981   -1.407238    2.807782
H      -1.128581   -4.950104    1.333250
H      -2.775189   -4.618078    0.828986
H      -0.227870   -4.512349   -0.819037
H      -1.838518   -4.937481   -1.387598
H      -2.409863   -2.603066   -1.720984
H      -0.671698   -2.435808   -1.876520
