17

C      -0.123333    1.501900    0.175334
N       0.415543    0.163899   -0.036465
C       0.866820   -0.520461    1.152643
C      -0.130937   -0.581274    2.254909
N      -0.944760   -0.591595    3.076046
C       1.243449   -1.965828    0.781677
O       0.780067   -2.555048   -0.157286
O       2.124274   -2.459845    1.653929
C       2.497039   -3.834181    1.447398
H       0.662479    2.154194    0.572527
H      -0.436336    1.907946   -0.789511
H      -0.978911    1.541133    0.867390
H      -0.231859   -0.437204   -0.534867
H       1.758138   -0.025529    1.555993
H       1.616237   -4.477732    1.502131
H       2.970021   -3.956017    0.470457
H       3.197484   -4.070790    2.247097
