15

C      -0.000651    1.508849   -0.068619
C      -0.004498    0.020726    0.054495
N      -0.013696   -0.756149   -1.044384
N       0.010091   -2.056402   -0.604131
C       0.005129   -2.082800    0.736034
C      -0.001210   -0.806106    1.190664
O       0.111011   -0.814964    2.576550
C      -0.165150   -2.179429    2.897468
O       0.095443   -3.011027    1.722842
H       0.896497    1.944993    0.384084
H      -0.026834    1.788060   -1.123737
H      -0.866648    1.954199    0.432667
H      -0.034402   -2.805242   -1.271771
H       0.487234   -2.508580    3.707533
H      -1.228451   -2.295679    3.155561
