16

C      -0.004375    1.369171   -0.011904
O      -0.038155   -0.058784   -0.076634
C      -1.259326   -0.595963   -0.045667
N      -2.374410    0.039568   -0.002146
C      -3.408002   -0.964183    0.030171
C      -3.555995   -1.880566   -1.168353
C      -2.710186   -2.328837   -0.005915
N      -1.309545   -1.980558   -0.104321
H       1.050181    1.642969   -0.058480
H      -0.553957    1.803543   -0.851114
H      -0.452690    1.724841    0.919995
H      -4.280882   -0.737667    0.632602
H      -4.515558   -2.372522   -1.288097
H      -3.056583   -1.606949   -2.092287
H      -2.965526   -3.195826    0.590750
H      -0.616688   -2.510550    0.402088
