18

C      -0.090027    1.579518    0.075756
C       0.013948    0.076704   -0.020745
O      -1.133273   -0.612888    0.408690
C       0.661849   -0.649136   -1.176356
C       1.622110    0.073079   -2.103152
C       2.779551    0.543983   -1.201448
O       3.698989    1.267644   -1.508609
N       2.556509    0.013235    0.049951
C       1.316354   -0.683923    0.197143
H       0.823139    2.086531   -0.242228
H      -0.918269    1.939901   -0.542324
H      -0.288385    1.880609    1.112061
H      -1.256923   -0.424829    1.346273
H       0.132531   -1.524547   -1.530286
H       2.017673   -0.593802   -2.875518
H       1.197611    0.941052   -2.615439
H       3.108275    0.337359    0.828920
H       1.312041   -1.580709    0.807396
