20

C      -0.390927    1.550687   -0.022545
O      -0.395788    0.273690    0.582742
C      -1.293480   -0.617739   -0.003364
C      -0.919320   -1.326200   -1.335420
C      -1.454437   -2.650562   -0.729416
C      -1.352991   -2.014956    0.701989
C      -0.054218   -2.382440    1.433769
C      -2.509265   -2.220798    1.567032
N      -3.438614   -2.382174    2.236375
H       0.320094    2.166872    0.531712
H      -0.076311    1.504760   -1.075279
H      -1.384696    2.021070    0.023645
H      -2.299260   -0.176299   -0.064805
H      -1.393567   -0.965369   -2.249312
H       0.164240   -1.342650   -1.476722
H      -2.488096   -2.855327   -1.012836
H      -0.858859   -3.552320   -0.881355
H       0.805742   -2.250337    0.773267
H       0.091240   -1.745491    2.308289
H      -0.089567   -3.426106    1.758078
