18

C      -0.003916    1.558731   -0.007527
C       0.082045    0.051114    0.061583
C       1.354874   -0.721359   -0.108376
O       2.484366   -0.007337    0.416560
C       1.912845   -0.089020    1.735091
C       2.750394   -0.471282    2.908283
C       2.179707    0.937853    2.782862
C       0.649973   -0.741834    1.233118
H       0.936520    2.015330    0.307026
H      -0.207841    1.884505   -1.033202
H      -0.805949    1.941845    0.632086
H      -0.764177   -0.475265   -0.378567
H       1.552498   -1.488902   -0.847605
H       2.326164   -1.140086    3.650499
H       3.813535   -0.596359    2.734636
H       2.875453    1.730758    2.529834
H       1.370666    1.235949    3.441308
H       0.114127   -1.535925    1.736185
