21

C      -0.072746    1.485396    0.031294
C       0.003257   -0.009039   -0.010810
C       0.022216   -0.778149   -1.105848
C       0.064104   -2.250110   -0.778773
C       0.411346   -2.276368    0.733410
O       1.778368   -2.602686    0.962389
C       0.058242   -0.859738    1.219456
C       0.570433   -0.375732    2.555978
C      -0.896046   -0.654926    2.382832
H       0.807874    1.920557    0.519856
H      -0.140575    1.904991   -0.975715
H      -0.947284    1.830149    0.597357
H      -0.025555   -0.400034   -2.121662
H      -0.904784   -2.728970   -0.977733
H       0.814153   -2.814835   -1.343501
H      -0.145623   -3.047352    1.271945
H       2.309104   -1.898839    0.572219
H       1.168970   -1.076792    3.126820
H       0.884758    0.658953    2.643752
H      -1.579321    0.187125    2.343966
H      -1.311291   -1.542416    2.849195
