23

C      -0.237497    1.427155    0.122282
C       0.076117   -0.050997   -0.149489
C       0.974558   -0.222926   -1.382187
C       0.728591   -0.679958    1.073606
C       0.027810   -1.202072    2.294569
C      -1.270439   -1.934568    1.932722
C      -0.421977   -2.937062    1.072814
O      -0.695536   -3.088024   -0.306916
C       0.842353   -2.150566    1.387562
H       0.680302    1.993046    0.324761
H      -0.728736    1.892255   -0.738973
H      -0.895057    1.542244    0.990463
H      -0.861172   -0.573229   -0.359736
H       1.955528    0.243090   -1.226749
H       1.128978   -1.283735   -1.596839
H       0.523807    0.242357   -2.265472
H       1.654954   -0.169439    1.343156
H       0.280120   -0.863877    3.292267
H      -1.749764   -2.421157    2.785472
H      -2.022973   -1.353739    1.391218
H      -0.392660   -3.918073    1.565829
H      -1.490045   -3.623435   -0.400877
H       1.806124   -2.609961    1.574164
