21

O      -0.064877    1.413368   -0.121040
C      -0.003899    0.008802    0.099492
C      -1.404861   -0.554584   -0.081883
C      -2.015318   -0.345640   -1.483360
C      -3.165702   -1.371345   -1.543786
C      -2.643461   -2.593544   -0.771683
C      -1.529742   -3.407506   -1.462075
O      -0.505741   -2.804526   -0.643007
C      -1.489995   -2.069207    0.128970
H       0.831530    1.759240   -0.086256
H       0.674407   -0.483242   -0.611495
H       0.360526   -0.216395    1.115306
H      -2.062820   -0.084541    0.663314
H      -2.343681    0.681763   -1.649024
H      -1.260197   -0.571049   -2.245851
H      -4.051254   -0.971001   -1.036157
H      -3.467490   -1.618339   -2.566968
H      -3.429412   -3.186021   -0.302189
H      -1.581273   -4.493136   -1.309125
H      -1.376205   -3.206559   -2.530441
H      -1.465633   -2.371774    1.182142
