15

C      -0.666682    0.084594   -0.683028
O       0.682604   -0.178912   -0.339646
C       0.959102   -0.048055    1.038129
C       0.273615   -1.022553    1.891489
C      -0.281504   -1.805912    2.614502
C       2.486474   -0.199513    1.173084
O       3.178022    0.615696    1.726302
C       3.152672   -1.455427    0.588083
O       2.562059   -2.437091    0.234670
H      -0.957958    1.107935   -0.403308
H      -0.738131   -0.025227   -1.766535
H      -1.350265   -0.624134   -0.199244
H       0.721698    0.968031    1.391100
H      -0.768219   -2.508460    3.245856
H       4.259520   -1.360403    0.575047
