18

C      -0.440149    1.322844    0.104646
N       0.302698    0.083642   -0.097838
C       0.934277   -0.451376    1.047081
C       0.165412   -0.936125    2.318563
C       1.001564   -1.902382    1.557892
O       0.489857   -2.983593    0.868856
C       2.474832   -1.745963    1.968257
C       2.380234   -0.282282    1.439353
O       3.192082    0.583169    1.283680
H       0.250536    2.104964    0.433237
H      -0.877575    1.638969   -0.846243
H      -1.246794    1.246279    0.853589
H      -0.259208   -0.625782   -0.554455
H       0.438910   -0.614469    3.319797
H      -0.902507   -0.992104    2.128548
H       0.087480   -3.590055    1.499962
H       2.738347   -1.905949    3.018325
H       3.149001   -2.318652    1.324248
