21

C       0.001842    1.576216    0.248276
C       1.507520    1.590067   -0.102080
C       2.451441    1.136836    1.052017
C       2.489260   -0.316946    0.472613
C       2.113800   -1.516788    1.362955
O       0.772083   -1.943669    1.188713
C      -0.143364   -0.865393    1.254730
C      -0.031943    0.033558    0.009818
C       1.419646    0.096029   -0.567064
H      -0.271789    1.925434    1.250411
H      -0.603973    2.122643   -0.479927
H       1.879536    2.395999   -0.735853
H       3.424033    1.634403    1.069038
H       2.014582    1.224088    2.052662
H       3.456148   -0.505154   -0.000949
H       2.724573   -2.391551    1.121197
H       2.292662   -1.266743    2.423868
H      -1.137981   -1.313892    1.332891
H       0.024872   -0.281749    2.176069
H      -0.768046   -0.278090   -0.734056
H       1.540863   -0.232125   -1.599520
