19

C       0.008214    1.446619   -0.007726
C      -0.013848   -0.007459   -0.001144
C      -0.029886   -1.213132   -0.003758
C      -0.030411   -2.632981    0.001011
O       0.780390   -3.339069   -0.960191
C      -0.283431   -4.301079   -1.182601
C      -1.139387   -3.689087   -0.084565
C      -0.329260   -3.524039    1.184169
C       0.655480   -4.536090    1.723537
H       0.775645    1.818408   -0.695682
H      -0.953234    1.860958   -0.331555
H       0.230034    1.851199    0.986091
H      -0.708510   -4.174943   -2.184514
H       0.056535   -5.335145   -1.053248
H      -2.211440   -3.550644   -0.123090
H      -0.901588   -2.992599    1.941565
H       1.330251   -4.883924    0.938179
H       1.269267   -4.089008    2.512054
H       0.139021   -5.402784    2.149977
