12

O      -0.049297    1.299893   -0.247383
C       0.031249   -0.022529   -0.019622
N       1.189505   -0.596357    0.014521
N       1.175482   -1.931279    0.250662
C       0.052939   -2.710259    0.452198
N       0.162175   -3.970826    0.666425
C      -1.168207   -1.897255    0.379389
N      -1.193926   -0.629423    0.157861
H       0.853693    1.626259   -0.356215
H       2.081284   -2.375178    0.275466
H      -0.756415   -4.391106    0.792304
H      -2.117543   -2.413081    0.524058
