16

O       0.206710    1.485001    0.089559
C       0.108326    0.082760   -0.013283
C       0.037309   -0.620792    1.353483
O       1.006797   -0.735471    2.320399
C      -1.498352   -0.285353    1.538500
N      -1.922263   -1.707118    1.765281
C      -0.784684   -1.819220    0.793315
C      -1.286034   -0.550310    0.007721
O      -2.204558   -0.476949   -1.006156
H      -0.038930    1.869453   -0.758003
H       0.817509   -0.333891   -0.742492
H       1.299899    0.152765    2.555180
H      -1.963714    0.571806    2.022642
H      -1.623670   -2.021945    2.691684
H      -0.415304   -2.763448    0.393236
H      -3.000163   -0.936846   -0.708499
