23

C       0.036873    1.521372   -0.144276
C       0.202199    0.002211   -0.058830
C       0.547970   -0.482656    1.356541
C       0.677772   -1.990122    1.432138
C       1.987419   -2.690197    1.137563
O       3.077735   -1.862970    0.839052
C       1.399689   -2.718750    2.538688
C       2.081729   -1.995593    3.675719
O       0.745775   -3.908771    2.913781
H       0.956809    2.036681    0.154191
H      -0.207036    1.840878   -1.162398
H      -0.765323    1.871571    0.515365
H      -0.721257   -0.487894   -0.394764
H       0.991795   -0.325286   -0.745584
H       1.480806   -0.006356    1.672670
H      -0.229780   -0.149671    2.057214
H      -0.194970   -2.533114    1.077151
H       1.938007   -3.621092    0.571929
H       3.876194   -2.281722    1.176836
H       2.635526   -1.123794    3.322669
H       1.352230   -1.671720    4.424517
H       2.796402   -2.662882    4.176074
H       1.414004   -4.523614    3.238456
