16

C      -0.010966    1.360746    0.011522
O       0.035873   -0.065776    0.035153
C       0.639209   -0.588195    1.111839
N       1.174225    0.055526    2.118670
C       1.680975   -0.931989    2.949285
N       2.277593   -0.600924    4.174095
C       1.431561   -2.166501    2.427494
O       1.766321   -3.426930    2.825929
N       0.740282   -1.932853    1.224518
H       0.998428    1.782886    0.020310
H      -0.526122    1.625036   -0.912627
H      -0.557487    1.745788    0.877508
H       2.633524    0.346725    4.143218
H       3.028390   -1.237541    4.413019
H       1.123224   -3.738914    3.474752
H       0.475270   -2.619843    0.540227
