17

C       0.002987    1.412769    0.006239
C       1.444730    1.952203    0.005808
C       2.193468    1.224314   -1.063751
C       1.710314    0.067751   -1.609737
C       0.426952   -0.588425   -1.212377
O      -0.039852   -0.012392   -0.004227
N       2.634513   -0.304119   -2.560823
C       3.626865    0.639735   -2.534137
N       3.392823    1.576092   -1.644197
H      -0.534350    1.714871    0.908923
H      -0.541191    1.811075   -0.865415
H       1.436736    3.032847   -0.176807
H       1.906639    1.797159    0.989125
H      -0.335931   -0.491283   -2.006848
H       0.549661   -1.659606   -1.009963
H       2.601444   -1.116584   -3.153509
H       4.485380    0.583720   -3.186707
