19

C      -0.101256    1.567652    0.037597
C      -0.029503    0.047879    0.046407
C       0.916977   -0.667376   -0.991505
C       1.667761   -1.298454    0.194067
C       2.426314   -2.591578    0.251042
C       3.758916   -2.501271   -0.475896
O       4.144145   -3.298301   -1.290656
O       2.161166   -0.203376    0.988898
C       0.797011   -0.613823    1.165183
H       0.900531    1.994827    0.136490
H      -0.540132    1.935002   -0.895857
H      -0.715703    1.940213    0.864532
H      -1.030557   -0.393101    0.003557
H       0.390813   -1.394946   -1.613987
H       1.525108   -0.016432   -1.624933
H       2.642176   -2.819840    1.303518
H       1.848781   -3.416052   -0.176853
H       4.375439   -1.621948   -0.186002
H       0.496498   -0.894304    2.169473
