20

C      -0.018963    1.560037   -0.011637
C      -0.064402    0.029955    0.085899
C      -1.462007   -0.515550    0.085965
N      -2.525998   -0.143193    1.084874
C      -3.229158   -1.116190    0.188650
C      -2.510074   -0.572302   -1.070889
O      -2.086720   -1.876616   -1.557741
C      -1.966902   -2.002565   -0.104380
C      -1.498515   -3.292480    0.485600
H       1.011720    1.924164    0.029145
H      -0.461455    1.905687   -0.951329
H      -0.580666    2.018159    0.807024
H       0.470103   -0.425132   -0.757329
H       0.450635   -0.302373    0.997358
H      -2.326592   -0.577829    1.990348
H      -4.271973   -1.411080    0.311190
H      -2.819246    0.187060   -1.787050
H      -0.492592   -3.537596    0.131001
H      -1.472164   -3.221143    1.578275
H      -2.171333   -4.110248    0.209746
