19

C      -0.331636    1.515437   -0.030886
C       0.003026    0.031142   -0.012441
C       1.150214   -0.422974   -1.055583
C       2.157705   -0.197439    0.124698
C       2.903090   -0.864091    1.353354
O       1.910802   -0.121297    2.204688
C       1.018893   -0.503710    1.046461
C       1.042517   -2.038222    1.189445
C       2.336680   -2.281867    1.391555
H       0.560904    2.142098    0.051028
H      -0.843251    1.778198   -0.962648
H      -0.996153    1.773015    0.799745
H      -0.918650   -0.558428   -0.068907
H       1.019158   -1.464696   -1.353086
H       1.282235    0.208003   -1.938005
H       2.391501    0.868483    0.166430
H       3.937674   -0.660129    1.630263
H       0.188004   -2.697942    1.136213
H       2.878917   -3.199107    1.566868
