17

O       0.148907    1.242409    0.185434
C      -0.017859   -0.142519   -0.077376
C      -1.412920   -0.580727   -0.025018
C      -2.574849   -0.899122   -0.003515
C      -3.997490   -1.289911    0.041781
O      -4.678383   -0.953264   -1.145684
C      -4.418300   -2.026629   -2.045222
C      -4.197499   -3.245646   -1.115300
O      -4.148331   -2.686040    0.197632
H      -0.443966    1.722274   -0.402476
H       0.412880   -0.423388   -1.051957
H       0.566859   -0.664951    0.687866
H      -4.506796   -0.794681    0.874146
H      -5.282676   -2.128930   -2.704472
H      -3.526424   -1.820280   -2.650357
H      -5.024690   -3.960538   -1.143664
H      -3.264570   -3.771007   -1.350057
