19

C       0.003042    1.541643    0.002511
C       0.034055    0.035817    0.028944
C      -1.267593   -0.779866   -0.191816
C      -0.734628   -2.099967    0.412732
C      -0.449386   -1.673153    1.876291
C       0.655920   -0.828172    1.227050
C       0.813455   -1.938978    0.102127
C       0.984758   -0.784128   -0.864055
O       1.725188   -0.521711   -1.768957
H       1.006020    1.961000    0.129007
H      -0.385058    1.901906   -0.956238
H      -0.638211    1.942482    0.795027
H      -2.124848   -0.387701    0.364605
H      -1.540926   -0.845729   -1.249780
H      -1.261778   -3.023217    0.175206
H      -1.251190   -1.179295    2.435312
H      -0.026280   -2.482955    2.476570
H       1.508091   -0.400928    1.752496
H       1.471323   -2.801164    0.176980
