21

C      -0.110648    1.537668   -0.189747
C      -0.076022    0.053529    0.064852
O       1.167585   -0.634654   -0.066260
C       0.565567   -0.586888    1.236827
C       1.301764    0.136347    2.301820
C       0.964722    0.163810    3.594705
C       1.966748    0.910896    4.439959
C       2.847992    1.624674    3.382721
C       2.625344    0.841603    2.066288
H       0.682107    2.065431    0.341802
H      -0.005441    1.742687   -1.260435
H      -1.073426    1.946876    0.135222
H      -0.914910   -0.493944   -0.372434
H       0.128881   -1.536753    1.551789
H       0.097649   -0.333353    4.018186
H       1.500750    1.612254    5.141599
H       2.550193    0.209254    5.054289
H       2.496403    2.653814    3.255751
H       3.900676    1.677053    3.671418
H       3.410559    0.092636    1.892946
H       2.631673    1.483047    1.181018
