13

C       0.036468   -1.179446    0.007864
C       0.002338    0.022064    0.002315
C      -0.023702    1.463225    0.005903
C       0.496946    2.179875    1.261672
C       1.325950    2.197925    0.022196
C      -1.110146    2.081503   -0.711730
C      -2.011205    2.609749   -1.306598
H       0.056539   -2.240928    0.006225
H      -0.030773    3.081904    1.546359
H       0.801963    1.540297    2.080877
H       2.208078    1.570917   -0.021446
H       1.375328    3.112514   -0.555972
H      -2.810979    3.066385   -1.834797
