12

O      -0.089764    1.209421    0.009474
N       0.982627    2.080343    0.003916
C       2.184285    1.579933   -0.010258
C       2.416328    0.188985   -0.019997
C       3.454454   -0.699422   -0.034895
C       2.821472   -2.000870   -0.035393
N       1.501610   -1.979292   -0.023059
C       1.205033   -0.634885   -0.012896
N       0.001578   -0.155131    0.001218
H       2.974099    2.325717   -0.013862
H       4.515420   -0.498445   -0.044135
H       3.350977   -2.947617   -0.045692
