15

O      -0.031988    0.027531    0.045520
C      -0.036226    1.215129   -0.005320
C      -1.125039    2.326510    0.089300
C      -0.013624    3.147143    0.817390
C       1.045813    2.324579    0.007750
C       1.152575    2.908840   -1.412157
O       2.211638    3.080959   -1.971355
C      -0.171928    3.184451   -2.016777
C      -1.270478    2.867903   -1.312044
H      -2.071069    2.112342    0.583995
H      -0.029292    4.223898    0.640175
H       0.035153    2.933070    1.886978
H       2.032372    2.111884    0.416214
H      -0.198778    3.589916   -3.021360
H      -2.266856    2.965637   -1.730113
