18

C      -0.252835    1.484866    0.024842
C       0.017205    0.013660    0.035953
N       0.136236   -0.675513   -1.119071
N       0.316154   -1.919587   -0.679165
C       0.772223   -3.273010   -1.017637
C       0.785833   -3.529369    0.545650
C       0.369121   -2.067173    0.660532
C       0.170528   -0.809025    1.198831
N       0.190469   -0.361558    2.534297
H       0.521486    2.040827    0.567145
H      -0.278888    1.847154   -1.004814
H      -1.215505    1.731596    0.492516
H       0.056931   -3.858138   -1.602156
H       1.756808   -3.302806   -1.492687
H       0.062784   -4.272994    0.891044
H       1.772364   -3.775932    0.945781
H      -0.090293   -1.082509    3.186665
H      -0.410234    0.442528    2.670937
