18

O      -0.088491    1.445083    0.115537
C       0.028417    0.039026    0.003460
C      -1.326872   -0.636539    0.148984
O      -2.169149   -0.175408   -0.935571
C      -2.997455   -1.174520   -1.367249
N      -3.826017   -1.073593   -2.312235
C      -2.759909   -2.404621   -0.518329
C      -1.355392   -2.169878    0.051415
O      -0.334929   -2.571705   -0.848647
H      -0.681518    1.730239   -0.588405
H       0.481173   -0.265566   -0.947297
H       0.687229   -0.290135    0.813392
H      -1.789636   -0.315744    1.091259
H      -3.803488   -0.134454   -2.713343
H      -3.503351   -2.436699    0.286911
H      -2.856875   -3.322711   -1.100221
H      -1.212580   -2.628319    1.038729
H      -0.436118   -3.512738   -1.021567
