19

O      -0.109450    1.413261    0.175981
C      -0.022095    0.006925   -0.013521
C      -1.425464   -0.543741   -0.011745
C      -2.217019   -0.537533    1.341491
C      -2.655540   -1.971759    1.050970
C      -3.086079   -2.066136   -0.400250
O      -3.491287   -0.892778   -1.070342
C      -2.345386   -0.031601   -1.124507
C      -1.632538   -2.086983   -0.089138
H       0.782207    1.772689    0.194883
H       0.468933   -0.236591   -0.970981
H       0.564387   -0.470079    0.787670
H      -1.537707   -0.481904    2.195824
H      -2.999778    0.219467    1.451166
H      -2.942199   -2.720294    1.781426
H      -3.610078   -2.955489   -0.729400
H      -2.675204    0.998188   -0.965955
H      -1.859208   -0.104132   -2.110775
H      -0.909625   -2.849630   -0.349682
