21

C      -0.019434    1.517653    0.110940
C      -0.042538    0.031101   -0.010588
C      -0.052748   -0.756280   -1.093060
C      -0.044630   -0.414254   -2.544986
C       0.027061   -2.217858   -0.583280
C      -0.843822   -2.068975    0.696879
C       0.044066   -0.904765    1.221936
C       1.412012   -1.613528    1.168773
C       1.401859   -2.397829    0.090510
H       0.905968    1.860486    0.594282
H      -0.088920    2.013015   -0.861737
H      -0.846843    1.883226    0.733087
H      -0.105480    0.664355   -2.715897
H       0.871075   -0.777758   -3.031666
H      -0.883575   -0.885227   -3.073837
H      -0.254827   -2.982761   -1.308182
H      -1.873949   -1.767065    0.486973
H      -0.824229   -2.953645    1.340191
H      -0.222006   -0.448198    2.176280
H       2.221974   -1.439633    1.864592
H       2.201601   -3.013480   -0.299141
