21

O       0.520371    1.232239   -0.428948
C       0.241661   -0.105794   -0.044951
C      -1.208950   -0.509367   -0.316523
C      -1.496258   -1.966813    0.013073
C      -1.419159   -2.476475    1.480221
O      -1.827542   -1.412435    2.342895
C      -2.590689   -3.440871    1.157799
C      -2.967227   -2.503206   -0.027697
O      -3.947643   -1.542395    0.295051
H      -0.042671    1.807988    0.098347
H       0.925417   -0.727187   -0.635000
H       0.481331   -0.273715    1.016536
H      -1.875257    0.137302    0.264827
H      -1.436729   -0.323879   -1.372913
H      -0.871505   -2.624827   -0.602827
H      -0.472732   -2.909791    1.825559
H      -1.973285   -1.781256    3.220568
H      -2.235968   -4.419233    0.820961
H      -3.352140   -3.576326    1.931258
H      -3.294643   -2.974205   -0.957504
H      -3.671318   -1.137349    1.127888
