18

C      -1.694711   -0.812968   -0.508277
C      -0.277112   -0.363330   -0.129956
C       0.799122   -0.659143   -1.168157
C       2.191339   -1.013265   -0.696630
C       1.318062   -2.068948   -1.321587
C       0.722458    0.168632   -2.424959
F       0.734799    1.484877   -2.147997
F       1.750868   -0.071234   -3.258513
F      -0.403186   -0.068632   -3.125539
H      -2.072364   -0.274433   -1.379461
H      -1.718801   -1.882503   -0.741789
H      -2.382213   -0.635537    0.324289
H      -0.271250    0.711235    0.085796
H       0.021185   -0.862389    0.798908
H       3.034701   -0.652366   -1.272007
H       2.351422   -1.038897    0.375261
H       0.876688   -2.823948   -0.680528
H       1.577951   -2.415153   -2.314669
