21

C      -0.547436    1.621072    0.020423
O      -0.370380    0.361785    0.627506
C      -1.235732   -0.623201    0.128991
C      -0.951106   -1.223697   -1.289027
C      -1.022604   -2.655021   -0.665509
O      -2.080454   -3.470609   -1.083329
C       0.352039   -3.293898   -0.366215
C       0.425872   -2.453595    0.946372
C      -1.056489   -2.011485    0.763181
H       0.159520    2.311199    0.487308
H      -0.348549    1.589694   -1.061578
H      -1.569582    2.003556    0.170052
H      -2.279939   -0.282451    0.202551
H      -1.720786   -1.029115   -2.039264
H       0.029854   -0.955912   -1.692290
H      -1.925450   -3.716333   -2.002505
H       0.239110   -4.362101   -0.161044
H       1.145558   -3.153426   -1.107100
H       0.615540   -3.036082    1.849151
H       1.126308   -1.617767    0.919229
H      -1.759939   -2.318989    1.536332
