16

O      -0.469968    1.385661   -0.439485
C       0.037834    0.120347   -0.023976
C      -1.171058   -0.817732    0.228582
C      -1.483728   -1.547308   -1.119528
C      -0.147234   -1.513348   -1.801264
C       0.614379   -1.999791   -2.808609
O       1.838550   -1.419888   -2.778435
N       1.901492   -0.512176   -1.712623
C       0.721370   -0.592144   -1.163312
H       0.266939    1.898046   -0.789472
H       0.670855    0.227951    0.865730
H      -0.887044   -1.558687    0.982153
H      -2.018828   -0.248602    0.615271
H      -1.877152   -2.554076   -0.956399
H      -2.233162   -0.995453   -1.697348
H       0.473513   -2.724878   -3.594879
