14

C       0.894077    1.934147    0.111292
N       0.816455    0.533855    0.475745
C       0.577293   -0.388773   -0.360762
N       0.578507   -1.707706    0.135495
C      -0.011629   -2.787017   -0.466168
O      -0.531605   -2.772243   -1.559933
C       0.403460   -0.246089   -1.863178
O      -0.173199    0.687454   -2.359691
H       1.003550    2.134765   -0.957870
H      -0.021943    2.431932    0.451518
H       1.724628    2.385559    0.663327
H       0.866311   -1.785392    1.102344
H       0.050751   -3.692826    0.164044
H       0.905649   -1.022908   -2.466417
