17

C      -0.147747   -1.147170   -0.365529
C      -0.061513    0.026397   -0.122428
C       0.059721    1.451887    0.151150
C       1.522651    1.960413    0.120324
C       2.111824    1.977550   -1.320952
O       1.847446    3.388155   -1.449895
C       1.588322    3.508690   -0.041067
C       2.334034    1.374349    1.168682
C       3.012733    0.908748    2.044860
H      -0.229271   -2.185956   -0.569919
H      -0.508600    2.019426   -0.596250
H      -0.376476    1.686424    1.129402
H       3.183962    1.752280   -1.359193
H       1.578568    1.378397   -2.065825
H       0.664562    4.059611    0.170155
H       2.424758    3.968369    0.498848
H       3.611018    0.487751    2.814717
