12

C       0.083211    1.522447    0.058706
C      -0.008096    0.041758    0.075386
C      -1.077622   -0.816061    0.001233
N      -0.554919   -2.099112    0.065597
N       0.688614   -2.073667    0.167905
O       1.099971   -0.678294    0.178828
C      -2.452332   -0.528905   -0.117169
C      -3.622807   -0.268715   -0.218256
H       0.695432    1.862103   -0.782601
H      -0.915298    1.953112   -0.031137
H       0.549159    1.891450    0.977905
H      -4.657698   -0.046875   -0.307473
