14

O       0.004899   -0.001192    0.084206
C      -0.014183    1.180874   -0.049732
C      -1.088133    2.291637    0.019493
C      -0.026648    2.977552    0.966040
C       1.028357    2.322551   -0.009209
C       0.675333    3.058992   -1.315078
O      -0.060101    2.268008   -2.265884
C      -0.792306    3.037539   -1.295188
H      -2.118746    2.107298    0.311890
H      -0.042372    4.069402    0.982480
H      -0.006974    2.572040    1.979752
H       2.071463    2.168502    0.255064
H       1.293258    3.851655   -1.721652
H      -1.443919    3.811647   -1.684556
