18

C      -0.009210    1.439921   -0.484978
C      -0.073247    0.019881    0.001664
C       0.634284   -1.200083   -0.448871
N       1.179626   -0.504771    0.702946
C       1.089442   -1.496963    1.815923
C      -0.164902   -2.292009    1.482684
C      -0.505333   -2.002573    0.209566
C      -1.443905   -0.800349    0.090706
O      -2.336121   -0.615470    1.147777
H       1.011844    1.705832   -0.767062
H      -0.660967    1.579379   -1.355482
H      -0.337498    2.135634    0.295235
H       1.198631   -1.414997   -1.348850
H       2.048326   -2.030374    1.841499
H       0.953412   -1.008724    2.787816
H      -0.905958   -2.491860    2.248767
H      -1.942347   -0.657194   -0.880300
H      -3.076591   -0.086277    0.838905
