21

C       0.322486    1.444312    0.189612
C      -0.324704    0.105708   -0.186085
C       0.324452   -0.515948   -1.399558
O       1.627979   -1.090072   -1.216896
C       0.541377   -1.957756   -1.573969
C       0.141449   -3.029019   -0.548855
C       0.227297   -4.309084   -1.342057
C       0.489230   -4.095071   -2.630799
C       0.629644   -2.628959   -2.952590
H       1.386396    1.306972    0.404314
H       0.236119    2.169877   -0.626681
H      -0.152108    1.878423    1.074509
H      -0.257756   -0.589313    0.657015
H      -1.392658    0.250669   -0.396931
H       0.242790    0.085012   -2.310440
H       0.824316   -3.007205    0.308089
H      -0.869696   -2.865881   -0.151147
H       0.078111   -5.281967   -0.887401
H       0.585738   -4.867464   -3.385490
H      -0.163444   -2.283055   -3.629744
H       1.584034   -2.378407   -3.430506
