17

C       0.059466    1.401596    0.049665
N       0.066060   -0.050200    0.052128
C       0.521260   -0.630663   -0.981820
N       1.017960   -0.082381   -2.161902
C       1.643396   -1.075961   -3.003874
C       2.801943   -1.829046   -2.422693
C       1.388089   -2.417865   -2.367783
C       0.595615   -2.149057   -1.124348
O       0.077351   -2.954490   -0.398691
H       1.080475    1.817746    0.057719
H      -0.453630    1.812943   -0.833679
H      -0.449537    1.768381    0.943756
H       1.436442    0.835956   -2.121547
H       1.552080   -0.925743   -4.073515
H       3.487251   -2.329127   -3.098222
H       3.248333   -1.460451   -1.505018
H       1.175690   -3.313691   -2.935119
