17

C       0.671954    0.637081    0.861707
C      -0.324321    0.455959   -0.256551
O      -0.404600    1.205401   -1.204000
C      -1.266079   -0.760356   -0.190036
C      -1.105653   -1.556693   -1.504461
O      -1.196989   -2.751942   -1.571887
N      -1.093095   -1.561074    0.986455
C      -1.994206   -2.421416    1.252552
N      -1.932315   -3.228548    2.354261
H       1.268404    1.530706    0.675276
H       0.150459    0.710614    1.820923
H       1.311100   -0.247934    0.939878
H      -2.278550   -0.323960   -0.291374
H      -0.924906   -0.914371   -2.389105
H      -2.913309   -2.553607    0.669105
H      -1.030642   -3.293772    2.803471
H      -2.474489   -4.076400    2.343266
