20

O      -0.066484    1.446328    0.010084
C       0.020218    0.030602    0.001763
C      -1.399694   -0.521020    0.012743
C      -1.428887   -2.054148    0.005021
N      -2.773188   -2.601986    0.014864
C      -3.522203   -2.858577    1.138053
C      -4.769232   -3.282824    0.740880
C      -4.780877   -3.279859   -0.681220
C      -3.540508   -2.853909   -1.096965
H       0.826326    1.803584    0.002691
H       0.555572   -0.331498   -0.892041
H       0.572929   -0.340823    0.881068
H      -1.921877   -0.147023    0.899863
H      -1.939092   -0.137860   -0.860066
H      -0.913392   -2.439396   -0.881774
H      -0.896433   -2.448628    0.877673
H      -3.098036   -2.719724    2.120403
H      -5.575380   -3.575106    1.396243
H      -5.597614   -3.569511   -1.324525
H      -3.132383   -2.711050   -2.085515
