13

C      -0.189613    1.404896    0.066785
N       0.017273   -0.032049   -0.028897
C       0.009218   -0.814117    1.185212
C      -1.307724   -0.837383    1.848861
N      -2.339476   -0.837572    2.367832
C       0.175685   -0.635149   -1.249941
O       0.188629   -0.060711   -2.312933
H       0.594873    1.867935    0.676607
H      -0.151436    1.808031   -0.944734
H      -1.163554    1.629168    0.515117
H       0.300508   -1.843237    0.950258
H       0.744490   -0.426082    1.902779
H       0.303320   -1.731348   -1.151495
