17

N       0.010322    1.403616   -0.046533
C       0.020122   -0.058166   -0.158946
C       0.704221   -0.552502   -1.376564
N       1.251328   -0.901288   -2.333876
C       0.686119   -0.654810    1.082561
C      -0.015973   -0.673080    2.467407
C      -0.951618   -1.818301    2.010008
C       0.493110   -2.125772    1.546488
O       0.967945   -1.701275    2.884547
H       0.965007    1.752537   -0.025487
H      -0.426794    1.813937   -0.866719
H      -1.021758   -0.385889   -0.224917
H       1.730743   -0.339911    1.154060
H      -0.205259    0.153719    3.150315
H      -1.309380   -2.456514    2.817838
H      -1.725705   -1.617914    1.266565
H       0.914499   -3.039258    1.127925
