16

C      -0.277452    1.378868   -0.044346
N      -0.264271   -0.072249   -0.174105
C       0.531176   -0.624680   -0.955625
O       1.500927   -0.080350   -1.809137
C       2.018354   -1.395280   -2.145841
C       3.366496   -1.601911   -1.626031
N       4.426959   -1.773495   -1.201062
C       0.864052   -2.070499   -1.322898
N       1.215905   -3.058869   -0.345888
H       0.536979    1.880780   -0.578441
H      -1.232860    1.761364   -0.419506
H      -0.222412    1.638833    1.017333
H       2.000006   -1.562866   -3.225206
H       0.114416   -2.488319   -2.000105
H       1.742531   -2.654133    0.421558
H       0.384646   -3.486735    0.044969
