16

C       0.328099    1.449405    0.158646
C       0.096676   -0.023847    0.046033
C      -0.077553   -0.784201   -1.065349
O      -0.263023   -2.075508   -0.746817
N      -0.212057   -2.202223    0.634685
C      -0.000271   -0.993362    1.095645
C       0.092492   -0.779938    2.584279
C       1.370914   -0.211720    3.006854
C       2.421502    0.258888    3.350794
H       1.254862    1.663464    0.699588
H       0.392198    1.912374   -0.829387
H      -0.484110    1.943406    0.704378
H      -0.093106   -0.552843   -2.119653
H      -0.722285   -0.118851    2.908951
H      -0.072048   -1.745146    3.074717
H       3.351961    0.664486    3.662871
