19

C       0.023016    1.472269   -0.451357
C      -0.016649    0.005196   -0.073860
C       1.179133   -0.834503   -0.303194
O       0.850633   -0.367628    1.004936
C      -1.353484   -0.642554   -0.046722
C      -1.835873   -1.460262    0.885021
C      -3.221860   -1.898802    0.516624
O      -3.497232   -1.264619   -0.732012
C      -2.394940   -0.457041   -1.125266
H       1.047928    1.846802   -0.400652
H      -0.354719    1.627597   -1.467407
H      -0.594518    2.062782    0.232995
H       1.056096   -1.904468   -0.461144
H       2.069550   -0.391026   -0.748688
H      -1.319166   -1.767148    1.784217
H      -3.304746   -2.991519    0.403372
H      -3.972107   -1.595861    1.264763
H      -2.714354    0.593167   -1.223275
H      -2.032363   -0.775282   -2.116521
