21

C      -0.116433    1.360394    0.115680
O       0.090839   -0.031442   -0.011393
C       0.672167   -0.502420   -1.224190
C      -0.086433   -0.056253   -2.475938
C       2.168422   -0.116423   -1.297189
O       2.835174   -0.864952   -2.305314
C       2.711817   -2.243505   -2.075651
O       1.377373   -2.673819   -2.096636
C       0.620916   -2.036509   -1.078140
H       0.811618    1.940261    0.014010
H      -0.847093    1.744878   -0.608104
H      -0.510637    1.520894    1.122227
H       0.022788    1.016203   -2.662085
H       0.306828   -0.588727   -3.344060
H      -1.151801   -0.286017   -2.375973
H       2.310668    0.936440   -1.553654
H       2.623050   -0.303046   -0.310604
H       3.228237   -2.752533   -2.891472
H       3.173157   -2.502559   -1.102712
H       1.005210   -2.303435   -0.081387
H      -0.405894   -2.400117   -1.163195
