18

C       0.036011    1.359978    0.426504
C       1.501011    1.562780   -0.053302
C       2.565355    1.158369    0.994158
C       2.443860   -0.334208    0.539228
N       1.927155   -1.254117    1.532834
C       0.703663   -1.572849    1.499628
O      -0.283217   -1.152954    0.670976
C       0.024224   -0.065401   -0.201352
C       1.496614    0.094283   -0.619258
H      -0.107018    1.381963    1.510320
H      -0.692380    2.032028   -0.032504
H       1.696243    2.441065   -0.667315
H       3.554424    1.572985    0.784679
H       2.317508    1.352246    2.041292
H       3.394464   -0.737972    0.182402
H       0.300331   -2.293445    2.209306
H      -0.674632   -0.164703   -1.032914
H       1.779395   -0.191355   -1.631755
