15

C       0.008528    1.461102   -0.008828
N       0.031577    0.012468   -0.017414
C      -1.108416   -0.776372   -0.122103
O      -2.239275   -0.361738   -0.216859
C      -0.622129   -2.233113   -0.091124
C       0.866435   -2.111390    0.038387
C       1.176126   -0.803108    0.075021
C       2.468038   -0.221935    0.190758
N       3.513990    0.265239    0.284520
H       0.576079    1.871898   -0.849710
H      -1.037901    1.756704   -0.097590
H       0.421707    1.858882    0.923367
H      -1.091224   -2.762727    0.746130
H      -0.939972   -2.749512   -1.004268
H       1.573048   -2.924056    0.093405
