16

C       0.048789    1.583519   -0.011091
C       0.071914    0.063244    0.001612
C       0.764542   -0.718419   -1.119105
C       2.253894   -0.822237   -0.657075
O       2.373475   -0.116309    0.573589
C       1.078931   -0.659647    0.945317
C       1.232257   -1.796609   -0.172809
O       1.035372   -3.146713   -0.234332
H       1.063057    1.980165   -0.097385
H      -0.542515    1.958463   -0.853452
H      -0.397160    1.977842    0.909028
H      -0.926380   -0.356685    0.165064
H       0.489561   -0.818498   -2.161673
H       3.102409   -0.883593   -1.325156
H       0.936326   -0.743224    2.021299
H       1.746992   -3.582923    0.249365
