17

O       0.326542    1.166868   -0.089336
C      -0.001699   -0.180226   -0.052069
C      -0.687062   -0.868773   -1.199523
C      -1.419114   -0.640823    0.110947
C      -1.368626   -1.781909    1.107973
O      -0.006362   -2.219568    1.123421
C       0.822596   -1.084776    0.874941
C       2.105308   -1.506665    0.324234
C       3.173504   -1.792529   -0.146030
H       1.102761    1.264890   -0.652993
H      -0.980058   -0.230705   -2.025564
H      -0.385291   -1.876595   -1.466611
H      -2.231735    0.074184    0.150253
H      -1.681594   -1.431440    2.104050
H      -1.976605   -2.650864    0.837743
H       0.998974   -0.515188    1.803415
H       4.116470   -2.064084   -0.552443
