17

C      -0.040214    1.518596    0.077132
C      -0.001713    0.031083   -0.028165
C      -0.030205   -0.799137   -1.128014
N      -0.161048   -0.388180   -2.465218
C       0.016929   -2.157870   -0.651253
C       0.006739   -3.385910   -1.420187
O       0.053134   -4.508570   -0.954969
C       0.077571   -2.094516    0.736714
N       0.070529   -0.792600    1.091699
H       0.946787    1.968929    0.250929
H      -0.440703    1.948128   -0.845776
H      -0.696405    1.850117    0.890931
H       0.343021    0.465169   -2.667658
H       0.121651   -1.098812   -3.125887
H      -0.048479   -3.247293   -2.526443
H       0.122808   -2.895205    1.455800
H       0.101155   -0.453885    2.038439
