21

C       0.405254    1.539915   -0.109339
C       0.062216    0.075521    0.074817
O       0.739894   -0.775653   -0.885803
C       1.288606   -1.608052    0.152021
C       0.666290   -0.723839    1.262193
C       1.878174   -0.126395    1.975758
O       2.962987   -0.227697    1.057648
C       2.803344   -1.443747    0.313146
C       3.462999   -2.629320    1.019441
H       1.483938    1.697967   -0.035676
H       0.074849    1.872999   -1.098292
H      -0.103281    2.155687    0.641027
H      -1.024374   -0.069638   -0.002441
H       0.970171   -2.651286    0.054654
H      -0.058399   -1.174458    1.940121
H       1.766506    0.929640    2.237579
H       2.086620   -0.684135    2.901884
H       3.270194   -1.273046   -0.661896
H       2.964618   -2.865896    1.965815
H       3.425464   -3.523006    0.388004
H       4.509776   -2.400570    1.235093
