21

C      -0.025795    1.345498   -0.218667
C       0.160776   -0.117145    0.111451
O      -0.881173   -0.840461   -0.482293
C       1.546328   -0.721610    0.170039
C       0.715582   -0.603785    1.442526
C       1.172878    0.382590    2.504823
O       2.298919   -0.076779    3.250450
C       0.110286   -1.862727    2.058251
O      -0.110359   -2.940059    1.146167
H       0.811652    1.960321    0.115493
H      -0.111621    1.451692   -1.304634
H      -0.947985    1.731071    0.227921
H      -0.806076   -1.763426   -0.196764
H       1.675854   -1.699068   -0.285086
H       2.415652   -0.077764    0.080068
H       1.492554    1.316959    2.038727
H       0.335444    0.630124    3.175781
H       1.985548   -0.655004    3.950669
H       0.746904   -2.208289    2.885289
H      -0.877491   -1.632869    2.473948
H       0.748142   -3.298284    0.898061
