15

N      -0.589096   -1.052588   -0.617888
C      -0.358406    0.048017   -0.350316
C      -0.074352    1.426298    0.007179
C      -0.124366    1.789495    1.538175
C       1.370008    2.205845    1.488336
N       2.277912    1.231809    2.107420
C       2.747488    0.538905    1.155956
O       2.380086    0.808693   -0.130728
C       1.427604    1.871416   -0.033698
H      -0.700876    2.083993   -0.601221
H      -0.823285    2.596903    1.762062
H      -0.318946    0.946585    2.201248
H       1.602163    3.218937    1.821279
H       3.451045   -0.279415    1.252196
H       1.670548    2.630673   -0.776666
