20

C      -0.119462    1.586524    0.104860
C       0.014499    0.066445   -0.034417
C       0.722802   -0.567761    1.154624
C       0.032918   -0.577302    2.547507
C       0.644115   -1.976999    2.803228
O      -0.053505   -2.949556    3.511451
C       0.853008   -2.132409    1.243268
C      -0.258409   -2.853833    0.648667
N      -1.176846   -3.428372    0.240666
H       0.861729    2.067353    0.186470
H      -0.629950    2.016080   -0.761906
H      -0.695763    1.854872    0.996659
H      -0.978168   -0.384923   -0.149052
H       0.567275   -0.172969   -0.951931
H       1.733362   -0.154558    1.246228
H       0.269371    0.218201    3.256190
H      -1.055764   -0.648132    2.441453
H       1.625404   -1.897121    3.278132
H      -0.893451   -3.115981    3.065627
H       1.795479   -2.574869    0.912990
