20

C       0.006961    1.532599    0.036697
C      -0.000889    0.024127   -0.025464
C       0.218830   -0.823305   -1.293973
N      -0.431834   -1.969023   -0.545738
C       0.637141   -2.185230    0.481994
C       0.717824   -0.767203    1.108192
O      -0.188825   -0.715309    2.215927
C      -1.469886   -1.040324    1.652464
C      -1.259465   -0.873318    0.154055
H       1.004083    1.931158   -0.183082
H      -0.690368    1.968642   -0.686785
H      -0.277021    1.879920    1.035131
H      -0.412314   -0.508815   -2.129987
H       1.233694   -1.023352   -1.652363
H       0.345093   -2.932723    1.222376
H       1.554331   -2.520445   -0.008737
H       1.690498   -0.409970    1.446827
H      -1.775769   -2.060308    1.922426
H      -2.219671   -0.342885    2.042380
H      -2.142172   -0.628950   -0.437135
