21

C      -0.906665    1.071342    0.481405
C       0.049020   -0.037057    0.060053
C       0.765144    0.018520   -1.330099
C       2.130536   -0.296042   -0.661491
C       2.844286   -1.678147   -0.799641
C       4.196886   -0.950683   -0.584752
C       3.493567    0.386322   -0.939724
C       1.453809   -0.047743    0.690477
O       1.869096    0.175185    1.794025
H      -0.459471    2.057836    0.319818
H      -1.841242    1.026818   -0.086710
H      -1.148266    0.985854    1.545088
H      -0.416850   -1.019156    0.212639
H       0.424663   -0.699099   -2.079690
H       0.739306    1.022722   -1.764647
H       2.564814   -2.465126   -0.094334
H       2.739394   -2.062709   -1.819071
H       4.498996   -0.972558    0.464649
H       5.039789   -1.262001   -1.205145
H       3.599349    0.642498   -1.998411
H       3.731276    1.262777   -0.332077
