14

C      -0.137335   -1.123912    0.466092
C      -0.061201    0.021104    0.112422
C       0.047773    1.415127   -0.302061
C       1.453743    1.990324   -0.109125
C       1.595738    3.405459    0.352325
N       1.935734    2.298335    1.247556
C       2.457733    1.440178   -0.999394
N       3.233889    1.016643   -1.743388
H      -0.202784   -2.139840    0.769277
H      -0.240229    1.517759   -1.355416
H      -0.654879    2.031314    0.272793
H       2.440841    3.996323    0.014336
H       0.675609    3.962260    0.510524
H       1.191052    2.116909    1.917035
