18

O      -0.123272    1.385708   -0.025464
C      -0.050671    0.003436    0.017955
C       0.344462   -0.816508    1.288690
C      -0.434097   -1.934921    0.542642
C      -1.366716   -0.807975    0.011349
C       0.472972   -2.209202   -0.674563
C       0.796780   -0.723930   -1.077985
C       0.416583   -0.373113   -2.440253
N       0.114798   -0.099230   -3.522285
H       0.767366    1.752948   -0.051868
H       1.405421   -0.975568    1.506643
H      -0.179174   -0.447396    2.172118
H      -0.829560   -2.802424    1.066756
H      -2.061721   -0.441998    0.768827
H      -1.878554   -0.952834   -0.943185
H       1.379285   -2.762409   -0.416324
H      -0.042576   -2.744739   -1.474454
H       1.861293   -0.495752   -0.953962
