23

C       0.065606    1.598299    0.048801
C      -0.015268    0.064547    0.007227
C      -1.474974   -0.424148    0.036332
C      -2.184428   -0.220536    1.370451
O      -3.485424   -0.779150    1.249283
C       0.726429   -0.511082   -1.238244
C       2.176737   -0.001821   -1.383359
C       0.729369   -1.974882   -1.221346
C       0.771891   -3.176628   -1.195503
H       1.092242    1.955644    0.159842
H      -0.347250    2.036192   -0.868359
H      -0.506680    1.999624    0.889572
H       0.499557   -0.334636    0.892781
H      -2.052055    0.083054   -0.748222
H      -1.508881   -1.494181   -0.189766
H      -1.611217   -0.717483    2.171043
H      -2.242822    0.848360    1.627681
H      -3.949328   -0.641090    2.080073
H       0.165798   -0.186075   -2.127642
H       2.203916    1.074409   -1.567872
H       2.753954   -0.214979   -0.477901
H       2.669939   -0.501977   -2.220464
H       0.793850   -4.238104   -1.181969
