18

C       0.062904    1.592382    0.010825
C       0.032704    0.056060    0.072081
C       0.825764   -0.496987    1.268203
O      -1.346407   -0.431403    0.097986
C      -2.165734   -0.097994    1.125547
N      -3.408526   -0.614384    0.887688
O      -1.875257    0.570040    2.092686
C       0.571249   -0.498765   -1.175649
C       1.055966   -0.931038   -2.185742
H       1.092992    1.927947   -0.134303
H      -0.535476    1.944155   -0.833118
H      -0.330288    2.010848    0.936862
H       0.434449   -0.085498    2.198037
H       0.754683   -1.587248    1.291400
H       1.878694   -0.223899    1.160803
H      -3.517420   -1.318700    0.178358
H      -4.047329   -0.612488    1.663774
H       1.477614   -1.316080   -3.081306
