19

C      -0.039529    1.416163    0.060904
C      -0.462028    0.024298   -0.424815
C       0.561735   -0.581075   -1.351973
O       1.777837   -1.044688   -0.768410
C       0.904895   -2.022986   -1.364486
C       0.272121   -2.976845   -0.495388
C      -0.246504   -3.802282    0.214239
C      -0.922042   -4.787069    1.057733
O      -2.208108   -4.374376    1.497786
H       0.911730    1.361948    0.598355
H       0.086597    2.110770   -0.776900
H      -0.789231    1.838953    0.735697
H      -0.612281   -0.646355    0.426350
H      -1.418802    0.085356   -0.959607
H       0.707851   -0.048431   -2.295490
H       1.289673   -2.437319   -2.296565
H      -0.968553   -5.749195    0.522831
H      -0.337417   -4.961123    1.967911
H      -2.713949   -4.124278    0.717556
