16

C      -0.678652   -0.486200   -1.140125
C      -0.159858    0.135375   -0.252382
C       0.478823    0.909680    0.808772
C       1.632713    1.733274    0.317695
C       1.735540    2.955521   -0.635374
C       3.223339    2.636844   -0.839198
C       2.775353    3.510954    0.302184
N       2.651514    2.322470    1.256249
C       3.072902    1.425879    0.112665
H      -1.139373   -1.043211   -1.917793
H      -0.260558    1.567469    1.285638
H       0.849512    0.243558    1.598411
H       1.041105    3.438990   -1.306926
H       3.854010    2.842539   -1.691608
H       3.031546    4.519107    0.602146
H       3.647999    0.521158    0.271167
