23

C      -1.436308   -0.336391   -0.159053
C       0.062110   -0.049374   -0.034705
C       0.297272    1.429116    0.298050
O       0.528497   -0.878497    1.037958
C       0.802041   -0.438787   -1.343376
O       0.269362    0.404026   -2.349817
C       2.362079   -0.483808   -1.232773
C       2.303182   -2.033157   -1.193789
C       0.823018   -1.970431   -1.651409
H      -1.857341    0.200660   -1.010477
H      -1.616281   -1.405575   -0.296365
H      -1.949023   -0.025222    0.755105
H      -0.210992    1.683454    1.232701
H       1.365224    1.644900    0.420217
H      -0.079138    2.070786   -0.500586
H       1.358525   -0.512157    1.358711
H       0.671765    0.159992   -3.188900
H       2.819280   -0.101449   -2.151179
H       2.835978    0.030470   -0.391222
H       2.999923   -2.564780   -1.845435
H       2.395960   -2.426684   -0.180869
H       0.111617   -2.598328   -1.113275
H       0.703330   -2.149262   -2.725368
