14

O       0.386954    0.837787    0.835662
C      -0.026748    0.146143   -0.310687
C      -1.421103   -0.427439   -0.182878
N      -2.053648   -0.204656    0.969895
C      -3.284804   -0.701771    1.103885
C      -3.867450   -1.419304    0.074172
F      -5.093971   -1.919699    0.196174
C      -3.136416   -1.604425   -1.094149
N      -1.910412   -1.108340   -1.225191
H      -0.350281    0.781380    1.461150
H      -0.011437    0.805112   -1.192655
H       0.661026   -0.683359   -0.536943
H      -3.814430   -0.529419    2.037021
H      -3.559047   -2.162502   -1.926177
