21

C      -0.102934    1.572005    0.028315
C       0.045415    0.049943    0.009995
C       0.772940   -0.513271   -1.245259
C       1.700228   -1.657975   -0.767486
C       3.177503   -1.241846   -0.461532
C       2.824585   -1.137510    1.030918
O       2.149293    0.103307    1.349037
C       0.832657   -0.504496    1.196893
C       1.465971   -1.837003    0.775498
H       0.883892    2.043079    0.060752
H      -0.627747    1.930002   -0.863165
H      -0.666775    1.908201    0.905173
H      -0.952886   -0.407184    0.068342
H       0.046433   -0.867570   -1.982786
H       1.357862    0.270891   -1.737701
H       1.608943   -2.555954   -1.379974
H       3.877641   -2.062892   -0.647607
H       3.556414   -0.331544   -0.935002
H       3.564791   -1.405872    1.788801
H       0.281401   -0.464739    2.144078
H       1.142086   -2.789365    1.188874
