16

O       0.285630   -0.028465   -0.225841
C       0.302057    1.162501   -0.285460
O       1.031760    1.921561    0.561905
C       0.987999    3.326827    0.379248
C       1.732829    4.040845    1.522151
N       2.917759    4.183380    0.644868
C       2.102026    3.903373   -0.564771
C       2.684613    3.029404   -1.565214
C       3.129829    2.296750   -2.407638
H      -0.279722    1.763076   -1.010521
H      -0.030936    3.652662    0.157040
H       1.242365    4.980685    1.808571
H       1.904675    3.433267    2.414621
H       3.373652    5.088657    0.653052
H       1.714007    4.810881   -1.052827
H       3.536387    1.642624   -3.139329
