17

N       0.064078   -1.180685   -0.035517
C       0.038096   -0.022904   -0.028922
C      -0.014108    1.399620    0.000634
C       0.294586    2.258717   -1.208661
C       1.130953    2.441926    0.019338
N       0.501745    3.189191    1.121827
C      -0.416643    4.324471    0.752328
C      -1.654087    3.379582    0.803268
C      -0.658291    2.236840    1.128063
H       0.791135    1.724516   -2.011745
H      -0.420649    3.001218   -1.545083
H       2.201259    2.269708    0.014598
H      -0.402253    5.104103    1.517497
H      -0.200525    4.784412   -0.216401
H      -2.355014    3.593149    1.611883
H      -2.217786    3.270263   -0.125879
H      -0.812989    1.669816    2.048469
