19

C       0.809064    2.049459    0.371994
C       0.630179    0.550724    0.289297
C       0.771473   -0.309676   -0.917100
C       1.469006    0.150785   -2.200307
C       0.749475    1.222272   -3.022869
N       2.755603    0.564755   -1.668108
C       2.969299    0.233548   -0.350166
O       3.975078    0.424019    0.284001
N       1.776331   -0.396748    0.166341
H       1.548394    2.433678   -0.331340
H      -0.146507    2.546245    0.173659
H       1.126259    2.328373    1.381915
H      -0.087112    0.176663    1.018408
H       0.110570   -1.165924   -1.017108
H       1.591019   -0.737751   -2.839178
H       0.578721    2.131241   -2.442810
H       1.332456    1.484799   -3.911894
H      -0.218334    0.841789   -3.364627
H       3.520400    0.886702   -2.238701
