16

O      -0.162675    1.450032   -0.106567
C      -0.090529    0.052148   -0.057624
C      -1.461036   -0.580373   -0.033758
N      -2.114439   -0.765302   -1.326692
C      -1.605955   -1.958996   -0.587826
C      -0.420603   -2.612848   -1.191732
C       0.681363   -1.920921   -1.512606
C       0.772459   -0.482959   -1.212248
O       1.529523    0.282394   -1.779392
H       0.528159    1.710831   -0.737676
H       0.433011   -0.277806    0.862081
H      -2.074469   -0.309972    0.822299
H      -3.124455   -0.702218   -1.220144
H      -2.341584   -2.616327   -0.135105
H      -0.488480   -3.674398   -1.413918
H       1.516098   -2.367896   -2.041647
