18

C      -0.032460    1.407992   -0.203192
C       1.368258    2.009564   -0.031717
C       2.016686    1.499649    1.255372
C       1.217582    1.464154    2.558830
C       0.295883    0.290114    2.501049
C       0.555378   -0.422924    1.177343
O      -0.054169   -0.003891   -0.017336
C       2.026671   -0.033632    1.425807
N       1.726446    0.106190    2.945343
H      -0.726415    1.885704    0.504373
H      -0.413822    1.580352   -1.213050
H       2.000573    1.728960   -0.883167
H       1.291700    3.103514   -0.032757
H       3.008099    1.926906    1.426651
H       1.096690    2.249623    3.296366
H      -0.528973    0.160758    3.191699
H       0.388098   -1.498443    1.260316
H       2.853390   -0.652761    1.084056
