17

C       0.135774    1.543291   -0.053815
N       1.324464    0.665311   -0.010796
C      -0.006009    0.073288    0.012284
C      -0.522699   -0.848071    1.162684
N      -1.066516   -1.693629    0.082259
C      -1.834358   -2.720223   -0.382168
C      -1.863242   -2.565602   -1.762223
C      -1.117495   -1.401219   -2.130674
C      -0.643980   -0.894139   -0.939682
H      -0.011802    2.151802    0.834591
H      -0.129592    2.031239   -0.988233
H       1.736629    0.566607   -0.935334
H       0.260286   -1.326356    1.756656
H      -1.287225   -0.414269    1.813679
H      -2.269327   -3.470611    0.257206
H      -2.365747   -3.232961   -2.447060
H      -0.970911   -1.021044   -3.129051
