18

C      -0.196022    1.495721   -0.037502
C       0.089188   -0.002584    0.033076
O       0.784233   -0.322265   -1.191869
C       0.761201   -1.610197   -1.641938
O       0.390801   -1.885119   -2.754839
N       1.198638   -2.540524   -0.729275
C       2.202141   -2.278245    0.300223
C       1.784753   -1.315337    1.377520
C       0.868999   -0.359369    1.272847
H       0.740966    2.059927   -0.054931
H      -0.760130    1.727419   -0.943145
H      -0.777959    1.812421    0.833066
H      -0.867689   -0.544541    0.027917
H       1.234906   -3.462058   -1.139774
H       2.416924   -3.243988    0.769304
H       3.152846   -1.940753   -0.144641
H       2.314640   -1.435293    2.319175
H       0.645278    0.251465    2.144220
