12

O      -0.081871    1.445076    0.001438
C       0.008773    0.033828    0.015241
C       0.686541   -0.512884   -1.272734
C      -0.007383   -0.085303   -2.484022
N      -0.559984    0.239021   -3.445018
C       0.713550   -0.472269    1.195047
C       1.334955   -0.861356    2.147178
H       0.787339    1.805300    0.211502
H      -1.028416   -0.319055    0.028537
H       1.725360   -0.166766   -1.307686
H       0.712785   -1.607014   -1.236756
H       1.862340   -1.208558    3.001922
