19

C      -0.260065    1.515679   -0.054581
C       0.084226    0.046195   -0.022914
O       1.334947   -0.254326   -0.757072
C       1.940537   -0.734252    0.372835
N       3.084148   -1.221751    0.570314
C       0.722528   -0.545626    1.270970
N       0.792360    0.313081    2.431978
C       0.189085   -1.920083    1.699005
O       1.080426   -2.528810    2.611404
H       0.566581    2.128541    0.314559
H      -0.492989    1.830307   -1.075900
H      -1.131808    1.703577    0.578575
H      -0.721869   -0.562993   -0.444531
H       3.649530   -1.243172   -0.280124
H       1.095722   -0.254395    3.219448
H       1.488599    1.041497    2.313443
H      -0.765368   -1.796394    2.221787
H       0.019315   -2.545307    0.809621
H       1.948753   -2.557097    2.181598
