16

N       0.037974   -1.154578    0.087660
C      -0.014532    0.002535    0.039799
C      -0.025456    1.424056   -0.010642
C      -1.170048    2.129224    0.042042
C      -1.164332    3.597818    0.001780
C      -0.280556    4.354769    1.012223
C       0.163154    4.211863   -0.405581
O       1.196967    3.374133   -0.816458
C       1.312483    2.131000   -0.142319
H      -2.122778    1.612026    0.089617
H      -2.084418    4.079112   -0.308119
H      -0.627149    5.329202    1.337688
H       0.188776    3.762075    1.788249
H       0.143222    5.087418   -1.044042
H       1.778438    2.265935    0.846271
H       1.999844    1.530261   -0.743264
