17

O      -0.020422   -0.080582    0.089397
C      -0.032844    1.134459    0.057481
C      -1.339334    1.922053    0.101650
N      -1.139358    3.322169    0.462791
C      -0.137522    3.947508   -0.385102
C       1.222736    3.329776   -0.022301
N       1.110717    1.871331   -0.080431
C       2.288022    3.797385   -0.907226
C       3.169823    4.185363   -1.624785
H      -1.809232    1.784376   -0.890167
H      -1.982687    1.430728    0.835189
H      -2.016857    3.826309    0.411509
H      -0.314229    3.804821   -1.466247
H      -0.100347    5.021023   -0.185472
H       1.457175    3.642949    1.006066
H       1.964316    1.331282   -0.091031
H       3.949845    4.528031   -2.259314
