15

C       1.037765    1.295188    0.520827
O       0.494539    0.043845    0.118575
C       0.236586   -0.860850    1.174027
C      -1.265862   -1.071611    1.353101
O      -1.751473   -1.532068    2.349337
C       0.941902   -2.160919    0.761760
O       0.393414   -3.191817    0.469687
C       2.475640   -2.083686    0.700711
O       3.115000   -1.191670    1.191579
H       2.024498    1.164800    0.979551
H       1.133422    1.897431   -0.384856
H       0.372137    1.812116    1.225442
H       0.665599   -0.525054    2.126468
H      -1.865416   -0.754029    0.473360
H       2.930988   -2.968776    0.210595
