17

N      -0.115446    1.454140   -0.203473
C      -0.064529    0.045667   -0.036231
C      -1.139327   -0.792908    0.191655
C      -2.594279   -0.499861    0.323888
O      -3.401606   -1.431492   -0.401854
N      -0.653941   -2.074660    0.293021
C       0.708392   -2.087515    0.081772
C       1.095859   -0.779115   -0.101700
O       2.340803   -0.250201   -0.314896
H       0.756776    1.778380   -0.607781
H      -0.222911    1.936710    0.683248
H      -2.943241   -0.589499    1.360642
H      -2.769001    0.538114    0.007871
H      -3.136571   -1.367539   -1.326149
H      -1.251486   -2.881848    0.325171
H       1.276693   -3.003461    0.089795
H       2.967778   -0.966282   -0.450435
