16

C      -0.023407    1.516554   -0.045596
C       1.455932    1.873209    0.038443
C       2.464727    0.925693   -0.595300
C       2.189926    0.900768    0.914242
C       1.364886   -0.391523    0.709034
C       0.009713   -0.009396    0.002962
O       0.496792   -0.500371   -1.280908
C       1.835672   -0.478619   -0.753168
H      -0.563764    1.936283    0.812163
H      -0.510432    1.854788   -0.964724
H       1.755696    2.915654    0.059845
H       3.327101    1.305869   -1.129436
H       2.832497    1.150466    1.747378
H       1.400398   -1.224120    1.405930
H      -0.920939   -0.500454    0.294732
H       2.481467   -1.260238   -1.157478
