18

O      -0.479375    1.612520    0.309949
C      -0.174049    0.265412    0.117544
C      -0.312527   -0.790503    1.185953
C      -1.198850   -0.456790    2.371372
N      -2.458111   -0.013307    1.756596
C      -2.620310   -0.508442    0.382900
C      -1.203445   -0.821449   -0.059201
C      -3.499670    0.524186    2.450355
O      -4.602424    0.728317    1.988252
H      -1.301611    1.674320    0.809745
H       0.708335    0.186833   -0.509052
H       0.484117   -1.508098    1.343903
H      -1.344302   -1.347332    2.998031
H      -0.789119    0.338955    3.003826
H      -3.249873   -1.407229    0.357411
H      -3.119343    0.256091   -0.220078
H      -1.073630   -1.562270   -0.839426
H      -3.221175    0.778087    3.492905
