20

C       0.414843    1.814059    0.243269
C       0.092704    0.327841    0.172686
C       0.799395   -0.541749   -0.934563
C       1.380333   -1.430024    0.167663
N       2.187374   -0.580130    1.031034
C       0.718585   -0.590077    1.241504
C       0.190622   -1.133876    2.513530
C      -1.249336   -0.820046    2.864880
O       0.896686   -1.819652    3.230568
H       1.492877    1.963607    0.343249
H       0.075662    2.330241   -0.661149
H      -0.077553    2.287588    1.100247
H      -0.988782    0.169127    0.125218
H       0.090617   -1.055938   -1.586391
H       1.549530   -0.026425   -1.539967
H       1.502008   -2.506891    0.168504
H       2.558604   -1.167174    1.781367
H      -1.926632   -1.195678    2.089892
H      -1.498484   -1.278063    3.822435
H      -1.400668    0.263863    2.921361
