9

C      -0.047865   -1.224946   -0.004058
C      -0.007499   -0.025409    0.001980
C       0.025358    1.438030    0.009530
C       1.379534    1.993824   -0.000432
C       2.484608    2.462118   -0.008470
H      -0.078240   -2.286330   -0.009438
H      -0.530398    1.818735   -0.858348
H      -0.513664    1.809329    0.891916
H       3.464407    2.871303   -0.015594
