18

C      -0.018519    1.488484    0.068211
N      -0.031228    0.045298    0.151892
C      -1.270494   -0.628309    0.571188
C      -0.396994   -1.689531    1.316359
C      -0.108750   -2.941984    0.480555
C       0.728473   -0.607729    1.229734
C      -0.836270   -2.036189    2.660588
N      -1.184790   -2.315519    3.727233
H       0.990457    1.835382   -0.177668
H      -0.690055    1.818080   -0.731308
H      -0.333079    1.980656    1.007642
H      -1.881818   -0.037969    1.271328
H      -1.903695   -0.996197   -0.243159
H       0.217196   -2.641361   -0.518225
H       0.678259   -3.545673    0.941408
H      -1.004198   -3.562994    0.387135
H       1.728392   -0.958804    0.953407
H       0.792915   -0.010432    2.152500
