22

C      -0.039954    1.386465    0.202182
C       1.146956    2.288904   -0.176560
C       2.575491    1.757946    0.065489
C       2.924424    1.257669    1.465020
N       1.936958    1.378875    2.551618
C       2.370620    0.037006    2.118806
C       1.370453   -0.930544    1.486139
O       1.180255   -0.772482    0.092486
C       0.026133   -0.050055   -0.310470
H      -0.141916    1.374839    1.289489
H      -0.962087    1.832172   -0.194324
H       1.080013    2.545419   -1.242311
H       1.029779    3.230772    0.371485
H       2.806455    0.963084   -0.648518
H       3.261213    2.583803   -0.163544
H       3.959424    1.464876    1.736471
H       2.384942    1.633440    3.426901
H       3.060692   -0.472919    2.790515
H       1.770579   -1.943453    1.618704
H       0.412189   -0.886959    2.024319
H      -0.882093   -0.590286    0.006550
H       0.054566   -0.072646   -1.406252
