19

C       0.172097    1.461689   -0.098961
C      -0.080674   -0.033553    0.055561
C      -1.569236   -0.374511    0.126415
O       0.474121   -0.694902   -1.125170
C       1.211352   -1.797987   -0.802398
N       1.596098   -2.687943   -1.612132
C       1.469105   -1.789789    0.663512
N       2.131188   -0.523366    1.087244
C       0.677129   -0.669566    1.219246
H       1.245701    1.655112   -0.127822
H      -0.283236    1.829936   -1.022372
H      -0.264866    2.009814    0.741934
H      -2.073224   -0.050044   -0.787647
H      -1.717505   -1.453055    0.236684
H      -2.040361    0.128340    0.977325
H       1.256333   -2.483396   -2.553806
H       1.682571   -2.717415    1.177041
H       2.568861   -0.683420    1.992163
H       0.212023   -0.707188    2.198334
