17

N      -0.061987   -1.127851    0.021619
C      -0.030608    0.027523    0.040047
C      -0.004367    1.476822    0.032717
N      -0.822814    2.108624    1.063766
C      -0.639593    3.548420    0.737494
C       0.376395    3.441754   -0.394058
C       1.347779    2.257141   -0.058206
C       1.443003    1.927631   -1.564967
C      -0.046504    2.266899   -1.337284
H      -1.793154    1.824325    0.980355
H      -1.572571    4.027256    0.418227
H      -0.252731    4.099165    1.601960
H       0.785290    4.352157   -0.831497
H       2.130751    2.241428    0.699774
H       2.009702    2.636178   -2.172568
H       1.682567    0.896223   -1.833197
H      -0.866186    2.259141   -2.056981
