19

C       0.041864    1.483335   -0.125957
C      -0.032948   -0.004539    0.065031
C      -1.272019   -0.787694   -0.343512
O      -1.149794   -2.070212    0.267044
C      -0.293747   -1.967880    1.384079
C      -0.826598   -2.294428    2.757598
C       0.118137   -3.243115    2.038272
C       0.579763   -0.779887    1.150007
O       1.165854   -0.763483   -0.162096
H       0.980038    1.872390    0.276522
H      -0.002101    1.740296   -1.190070
H      -0.791996    1.984788    0.376074
H      -2.174289   -0.260240    0.005559
H      -1.350053   -0.938215   -1.425307
H      -0.457137   -1.739021    3.614086
H      -1.870478   -2.581295    2.812904
H      -0.306439   -4.152528    1.628467
H       1.138099   -3.336891    2.394409
H       1.169027   -0.346222    1.953303
