23

C       0.106994    1.365814   -0.586065
C       1.373057    1.652794    0.263666
C       1.326450    0.180116    0.795530
C      -0.130795    0.081242    0.251793
C       2.302985   -0.740919    0.049784
C       3.765465   -0.443665    0.415164
C       3.949723   -0.249921    1.896804
C       2.934665   -0.067795    2.740504
C       1.492432   -0.015523    2.305120
H      -0.682555    2.120563   -0.571053
H       0.345009    1.146088   -1.630119
H       2.274779    1.959777   -0.273228
H       1.185670    2.381426    1.057997
H      -0.870602    0.236164    1.043860
H      -0.392856   -0.834111   -0.287755
H       2.068872   -1.781303    0.312679
H       2.161334   -0.653505   -1.033990
H       4.410631   -1.258302    0.061836
H       4.118607    0.451968   -0.117541
H       4.970106   -0.260958    2.273428
H       3.131344    0.051061    3.803779
H       0.969745    0.787372    2.842466
H       0.983274   -0.944068    2.609807
