19

O       0.001155    1.429699   -0.065084
C       0.009803    0.024734    0.040223
C       0.225957   -0.645124    1.432338
C      -0.917345   -1.633216    1.055862
C      -1.413406   -0.578427    0.030031
O      -0.459333   -2.863360    0.514225
C       0.168540   -2.820460   -0.741123
O       1.265583   -1.946165   -0.810829
C       0.934405   -0.583684   -1.031200
H       0.904745    1.750543    0.033469
H       1.199161   -1.086181    1.652270
H      -0.081808    0.034203    2.231406
H      -1.607867   -1.914015    1.851637
H      -2.102582    0.117332    0.514125
H      -1.848148   -0.907920   -0.916363
H       0.558069   -3.828215   -0.900963
H      -0.553681   -2.572700   -1.537019
H       0.480232   -0.445872   -2.024950
H       1.892651   -0.051113   -1.022445
