18

O       0.034338    1.233229    0.075960
C       0.098752   -0.159914    0.131873
C      -0.539091   -0.785588    1.357884
O      -1.053307    0.083114    2.318335
C      -1.244730   -0.850213    0.028586
N      -2.389777    0.010105   -0.292374
C      -2.912690   -1.033111   -1.233781
C      -1.715250   -1.974894   -0.896815
O      -0.863448   -2.387555   -1.932115
H      -0.840735    1.425788   -0.314040
H       0.991832   -0.596655   -0.306680
H      -0.111012   -1.698219    1.766835
H      -0.700341    0.956998    2.088957
H      -2.983182    0.158803    0.519131
H      -3.902641   -1.420457   -0.977819
H      -2.924228   -0.688405   -2.273160
H      -2.012264   -2.888109   -0.374726
H      -0.502757   -1.599040   -2.353469
