23

C       0.165014    1.554689    0.084414
C      -0.065662    0.047189   -0.051342
C       0.717446   -0.577091   -1.210792
C       0.494785   -2.087912   -1.351688
C       1.287323   -2.688989   -2.497335
O       2.737466   -2.531473   -2.361315
C       2.923366   -3.923012   -2.627194
C       2.318847   -4.759959   -1.547162
C       1.440663   -4.203999   -2.653608
H       1.224424    1.778025    0.252367
H      -0.142930    2.085512   -0.823407
H      -0.400980    1.973174    0.922652
H       0.215709   -0.452523    0.885211
H      -1.137546   -0.149707   -0.188407
H       0.437032   -0.078301   -2.149305
H       1.789938   -0.391687   -1.075410
H       0.763155   -2.591089   -0.415372
H      -0.569439   -2.297284   -1.529647
H       0.981247   -2.231588   -3.448698
H       3.739472   -4.212053   -3.278999
H       2.500934   -5.827593   -1.625375
H       2.269669   -4.375265   -0.532909
H       0.852631   -4.831821   -3.308946
