17

O      -0.191260    1.390449    0.141590
N       0.013006   -0.000270    0.127348
C      -1.083899   -0.627058    0.002812
C      -2.500838   -0.056787   -0.129193
C      -3.312019   -1.263481   -0.582602
C      -2.600141   -2.375506   -0.432360
C      -2.170590   -3.629160   -1.160521
N      -0.780731   -3.036896   -1.138153
C      -1.185811   -2.139924    0.004816
H       0.708877    1.727431    0.203702
H      -2.830534    0.396035    0.816256
H      -2.529484    0.751968   -0.869101
H      -4.263502   -1.163186   -1.091809
H      -2.262518   -4.551205   -0.569672
H      -2.580872   -3.797618   -2.160234
H      -0.064763   -3.707922   -0.872762
H      -0.900467   -2.558278    0.980647
