19

O      -0.143573   -0.052234    0.043917
C      -0.044411    1.152289    0.023544
C       1.236170    1.908110   -0.008507
C       1.107278    3.250961   -0.031018
C       2.179769    4.295575   -0.055086
C       3.502530    3.921510    0.628271
C       4.328039    2.836166   -0.072713
C       3.734371    1.455524   -0.098701
C       2.448042    1.087869   -0.048253
H      -0.950118    1.800099    0.029202
H       0.086995    3.635060   -0.033639
H       2.369725    4.579794   -1.101968
H       1.781432    5.203493    0.414648
H       4.114994    4.827557    0.696762
H       3.295559    3.606445    1.657396
H       4.557035    3.150650   -1.102465
H       5.304842    2.774290    0.423978
H       4.464932    0.651276   -0.165179
H       2.224230    0.024850   -0.064464
