20

C      -0.687809    1.187332   -0.196690
C       0.031554   -0.127739    0.041259
O       0.541090   -0.396329    1.106627
C       0.077949   -1.092694   -1.133641
C       0.643328   -2.463771   -0.750526
N       0.788859   -3.354552   -1.893179
C      -0.289270   -3.940206   -2.487224
C       0.027083   -4.909585   -3.616065
O      -1.432027   -3.708023   -2.128569
H      -0.316916    1.677935   -1.103125
H      -1.756420    0.999413   -0.353221
H      -0.557979    1.844306    0.664153
H      -0.926101   -1.213652   -1.554355
H       0.683549   -0.632419   -1.927368
H       1.619168   -2.348078   -0.275479
H      -0.022130   -2.931626   -0.019575
H       1.713590   -3.586327   -2.212222
H      -0.592585   -4.657826   -4.479701
H       1.078497   -4.909677   -3.915647
H      -0.248262   -5.920028   -3.299945
