21

C      -0.300054    1.473998   -0.041591
C      -0.000703   -0.018958   -0.031478
C       1.218577   -0.438135   -0.910471
C       2.057386   -0.572340    0.363775
C       3.313326   -1.349769    0.605745
C       3.328171    0.161846    0.667344
C       0.780246   -0.542222    1.238011
C       0.778642    0.240616    2.455552
C       0.798260    0.896809    3.464460
H       0.604086    2.062782    0.143457
H      -0.705941    1.773921   -1.013778
H      -1.029140    1.738159    0.730387
H      -0.916221   -0.583681   -0.226556
H       1.065010   -1.391995   -1.425237
H       1.554755    0.302890   -1.641669
H       3.402981   -1.896978    1.539188
H       3.784579   -1.835231   -0.243415
H       3.808174    0.702979   -0.142195
H       3.417395    0.631686    1.641518
H       0.460733   -1.566375    1.465454
H       0.804641    1.471385    4.357282
