12

O       0.067452    1.515249   -0.057448
C       0.023207    0.123976   -0.023364
C       0.694800   -0.486181   -1.280246
C      -0.018517   -0.137594   -2.505033
N      -0.590703    0.121544   -3.474230
C       0.703044   -0.407615    1.228706
O       1.180758    0.338489    2.045650
H       0.521170    1.789091    0.755903
H      -1.020442   -0.236144    0.007486
H       1.723618   -0.116720   -1.346695
H       0.733433   -1.579011   -1.197408
H       0.728067   -1.509450    1.351989
