18

O      -0.082478    1.470400    0.081561
C       0.004555    0.052184   -0.014658
C      -1.400722   -0.481159   -0.011328
C      -2.554985   -0.195183   -0.967223
N      -3.234479   -1.166948   -0.003798
C      -1.900656   -1.958634    0.106734
C      -1.994750   -1.933752    1.627955
O      -0.769802   -2.091408    2.301012
C      -2.431319   -0.533852    1.166161
H       0.811462    1.824482    0.077259
H       0.508224   -0.253637   -0.947045
H       0.559372   -0.383142    0.827335
H      -2.994190    0.806596   -0.957837
H      -2.486293   -0.578104   -1.991620
H      -1.693086   -2.790875   -0.568516
H      -2.796025   -2.553080    2.052109
H      -0.914662   -1.917881    3.236419
H      -2.843289    0.306856    1.726854
