23

C       0.228954    1.690002    0.163402
O       1.496900    2.020240   -0.396635
C       2.033419    0.896566   -1.109163
C       0.878826   -0.120792   -1.198540
C       0.075300    0.160013    0.084749
C       0.575810   -0.606326    1.335965
C       2.054861   -1.037822    1.377575
C       3.091457    0.062316    1.096708
C       3.290910    0.394587   -0.388862
H       0.186848    2.071235    1.190552
H      -0.567235    2.186064   -0.413280
H       2.319677    1.242042   -2.110866
H       0.263551    0.097636   -2.077302
H       1.225810   -1.152574   -1.288210
H      -0.981947   -0.083756   -0.056824
H       0.361950    0.005931    2.221700
H      -0.031289   -1.512457    1.450126
H       2.239330   -1.456104    2.374332
H       2.218556   -1.868433    0.678104
H       2.814359    0.978998    1.631038
H       4.059216   -0.249991    1.506028
H       3.672457   -0.485716   -0.924528
H       4.061334    1.169937   -0.475399
