20

C      -0.041256    1.538341   -0.005454
C       0.021872    0.000127   -0.001972
C       0.820053   -0.580408   -1.213602
C       1.368799   -1.941867   -0.737222
C       1.562839   -1.780241    0.764358
C       2.248445   -0.524142    1.241993
C       0.740997   -0.596843    1.218835
C      -1.349166   -0.537828   -0.025342
N      -2.426216   -0.958185   -0.043880
H       0.971524    1.946086    0.055526
H      -0.513576    1.911285   -0.918832
H      -0.614233    1.910075    0.848313
H       0.200187   -0.659227   -2.108768
H       1.635372    0.110051   -1.448333
H       0.632959   -2.732205   -0.921899
H       2.286065   -2.219460   -1.266715
H       1.635758   -2.672404    1.375550
H       2.715347   -0.553336    2.220163
H       2.772288    0.103372    0.528266
H       0.204310   -0.600456    2.160310
