16

C       0.061251   -1.167113    0.003670
C       0.003022    0.032872   -0.036634
C      -0.110622    1.458800   -0.077639
C      -1.297541    2.158286    0.489171
C      -1.360024    3.405038    0.007196
C      -0.124617    3.673815   -0.812254
C       1.074377    3.623972    0.205517
N       1.285994    2.168289   -0.025493
C       0.402007    2.267334   -1.218770
H       0.125066   -2.226317    0.039069
H      -1.952490    1.694842    1.214196
H      -2.059250    4.175588    0.307553
H      -0.157763    4.487882   -1.533267
H       1.959341    4.134438   -0.181902
H       0.879072    3.928968    1.237912
H       0.667742    1.879725   -2.197212
