19

C      -0.234549    1.477455    0.047529
C      -0.003619   -0.017987    0.027862
O      -1.245803   -0.690176   -0.072776
C      -1.080616   -2.004501    0.452996
C      -0.104389   -1.851080    1.633228
C       0.829763   -0.726734    1.164456
C       1.937552   -1.127307    0.144846
C       1.082416   -0.521998   -0.982761
O       1.184323   -0.474434   -2.172881
H       0.710525    2.020137    0.145235
H      -0.714682    1.791637   -0.883494
H      -0.884671    1.746764    0.885390
H      -2.067901   -2.374185    0.739589
H      -0.672425   -2.680710   -0.314346
H      -0.649877   -1.535111    2.527531
H       0.421034   -2.780937    1.868227
H       1.171880   -0.085987    1.977067
H       2.894200   -0.612421    0.276964
H       2.140330   -2.197835    0.035832
