20

C      -0.252075    1.609748   -0.042369
C       0.013258    0.114404   -0.003204
O      -1.203008   -0.619112   -0.147325
C       1.144593   -0.467840   -0.929394
C       1.761944   -1.210419    0.292747
C       2.892817   -0.500744    1.076823
N       2.681768    0.957347    0.939424
C       1.894534    0.192652    1.943236
C       0.724617   -0.521833    1.231200
H       0.671750    2.172660    0.097198
H      -0.683731    1.892436   -1.011921
H      -0.968927    1.887578    0.737302
H      -1.591182   -0.369630   -0.993564
H       0.745963   -1.132889   -1.699248
H       1.798790    0.280017   -1.379388
H       1.839895   -2.295628    0.248603
H       3.877348   -0.889365    1.309158
H       3.434487    1.417997    1.449467
H       1.943563    0.471901    2.989026
H       0.078117   -1.103400    1.887401
