20

O       0.048768    1.439615    0.119338
C       0.058483    0.011198    0.059165
C      -1.395343   -0.468787    0.177900
C      -2.137521   -0.734683   -1.121200
C      -2.231242    0.081020   -2.352873
C      -0.990902    0.900620   -2.670894
C      -0.184651   -0.411774   -2.445229
C       0.718292   -0.518986   -1.222878
N      -1.457456   -1.237893   -2.334468
H       0.957642    1.743643    0.025991
H       0.614613   -0.371548    0.928148
H      -1.390051   -1.415443    0.731897
H      -1.945953    0.250251    0.793622
H      -3.042265   -1.316968   -0.949023
H      -3.174380    0.163175   -2.886195
H      -0.967934    1.207474   -3.718863
H      -0.779357    1.755922   -2.030482
H       0.354263   -0.736529   -3.337626
H       1.662161    0.014918   -1.397055
H       0.978955   -1.576162   -1.079312
