14

O      -0.003191    0.106563   -0.484415
C       0.008086    1.233781   -0.095031
C      -1.082666    2.204896    0.407110
C       0.040156    3.248409    0.660348
O       0.614405    3.129334    1.974190
C       1.716423    2.322180    1.486079
C       1.125799    2.282912    0.059191
C      -0.169716    4.618001    0.231766
N      -0.339647    5.702072   -0.131220
H      -1.768863    2.486525   -0.398429
H      -1.652540    1.910738    1.290635
H       2.662975    2.868229    1.552320
H       1.801293    1.367734    2.013807
H       1.770549    2.496057   -0.790914
