22

C      -0.063218    1.525343    0.054060
C       0.013616    0.003827   -0.014546
C       0.569449   -0.539334   -1.352705
C       0.055226   -1.967245   -1.364158
C       0.067594   -2.684351   -0.061586
C       0.799059   -2.124354    1.146432
C       0.872698   -0.575211    1.129097
N      -1.179548   -2.051214   -0.539234
C      -1.364103   -0.700978    0.031399
H       0.933399    1.977489   -0.005157
H      -0.662603    1.929315   -0.769301
H      -0.518916    1.857258    0.993873
H       0.154658    0.013868   -2.204231
H       1.661048   -0.468508   -1.412220
H       0.051106   -2.523360   -2.297374
H       0.014524   -3.771198   -0.089147
H       0.285928   -2.472696    2.050742
H       1.801801   -2.564042    1.186902
H       1.908274   -0.237157    1.007320
H       0.525259   -0.169797    2.086049
H      -1.771624   -0.766651    1.046822
H      -2.099109   -0.174251   -0.588603
