19

C       0.551235    1.532017   -0.397712
C       0.151093    0.123349   -0.036478
N       1.230548   -0.862117    0.175420
C       0.345751   -0.498798    1.301676
C       0.985815    0.205798    2.489483
O      -0.007974    0.613691    3.388800
C       1.977014   -0.713768    3.233973
N       2.998772   -1.192965    2.491824
O       1.820670   -0.927547    4.426957
H       1.465220    1.836313    0.116798
H       0.736154    1.609914   -1.474141
H      -0.244554    2.237241   -0.137169
H      -0.718689   -0.241881   -0.580947
H       0.974923   -1.770834   -0.199513
H      -0.399662   -1.227812    1.613892
H       1.564684    1.070315    2.131447
H       0.261911    0.214958    4.236273
H       2.954499   -1.101553    1.484801
H       3.637956   -1.845011    2.916824
