23

C       0.363514    1.460434    0.170327
C       0.046090   -0.031999    0.035434
C       0.514243   -0.598689   -1.294361
O       1.954805   -0.511925   -1.458018
C       2.073107   -1.927625   -1.753249
C       3.081579   -2.624048   -0.861103
C       0.578003   -2.114244   -1.487149
C      -0.099881   -3.187958   -0.689749
C      -0.394873   -3.024430   -2.164664
H       1.438365    1.630106    0.062057
H      -0.147928    2.046288   -0.601625
H       0.051167    1.846025    1.145296
H       0.523566   -0.594559    0.846209
H      -1.036089   -0.199352    0.124103
H       0.007517   -0.077240   -2.122113
H       2.341937   -2.072765   -2.810611
H       2.813449   -2.512174    0.193218
H       3.135241   -3.692522   -1.099002
H       4.076871   -2.194685   -1.013705
H       0.490482   -4.043317   -0.377210
H      -0.865504   -2.895042    0.021371
H      -1.360452   -2.619066   -2.451870
H      -0.005502   -3.770579   -2.850869
