16

C      -0.055317    1.457660    0.022274
N      -0.037853    0.009143    0.138559
C      -1.231993   -0.683912    0.063911
N      -2.366457   -0.049602    0.091077
N      -3.469895   -0.826986    0.101407
C      -3.520934   -2.213110    0.022510
N      -4.654909   -2.799960   -0.010885
N      -2.271210   -2.860518   -0.008374
C      -1.211561   -2.134334    0.017167
H       0.969299    1.827602    0.094129
H      -0.503833    1.805928   -0.918925
H      -0.641712    1.881486    0.841490
H       0.730168   -0.445969   -0.331869
H      -4.346613   -0.329815    0.125135
H      -4.501135   -3.804999   -0.055123
H      -0.245714   -2.644785    0.003666
