17

O      -0.013806    1.359774   -0.274293
C       0.027193   -0.009800    0.078970
C      -1.370284   -0.567021    0.195638
C      -2.310215   -0.007772    1.257407
O      -3.486021   -0.823119    1.147283
C      -3.132506   -1.968528    0.413056
C      -2.539631   -1.761861   -0.970643
O      -2.089253   -0.412809   -1.087339
C      -1.651345   -2.090453    0.205812
H      -0.526649    1.413341   -1.090127
H       0.591499   -0.604181   -0.654909
H       0.546873   -0.078170    1.040983
H      -1.878224   -0.087982    2.266630
H      -2.576379    1.032166    1.056354
H      -3.758253   -2.830405    0.610679
H      -2.797840   -2.299837   -1.875716
H      -0.981433   -2.902888    0.452711
