16

N      -0.141890    1.360225   -0.217315
C      -0.046523   -0.010568   -0.074261
N      -1.084528   -0.772324    0.246766
N      -0.524046   -2.020329    0.194244
C       0.772897   -1.942197   -0.134499
N       1.121277   -0.676797   -0.314438
N       1.548954   -3.101134   -0.244406
C       2.562449   -3.090601   -1.323441
C       2.981101   -2.945218    0.087307
H       0.729825    1.836968   -0.039524
H      -0.918451    1.762705    0.287360
H      -1.066112   -2.843955    0.392539
H       2.676984   -4.040140   -1.836657
H       2.596908   -2.201722   -1.945105
H       3.297950   -1.959245    0.411452
H       3.407819   -3.787210    0.623211
