17

O      -0.102077    1.414298    0.031966
C      -0.002085    0.033575   -0.011012
C       0.324835   -0.799333   -1.306684
C      -0.337355   -1.946450   -0.467561
C       0.600631   -2.013572    0.736575
C       0.820582   -0.728188    1.037395
C      -1.299940   -0.826289    0.040765
C      -2.510626   -0.780700    0.841411
O      -2.500600   -0.473331   -0.579107
H       0.784629    1.789068    0.008263
H      -0.280093   -0.490342   -2.163491
H       1.378115   -0.925668   -1.568328
H      -0.706722   -2.861395   -0.923721
H       0.931195   -2.909611    1.242623
H       1.365780   -0.279605    1.856651
H      -3.028596   -1.700259    1.108178
H      -2.700133    0.072854    1.489351
