14

N      -0.246678    1.029735    0.633678
C      -0.123072   -0.129110    0.158688
C      -1.170898   -0.865321   -0.651264
C      -0.692658   -2.334635   -0.607178
C       0.834883   -2.145070   -0.423632
O       0.988299   -0.921450    0.294173
C      -1.286678   -3.079946    0.503200
N      -1.754122   -3.676092    1.375745
H       0.602355    1.316808    1.122942
H      -2.169837   -0.706237   -0.248354
H      -1.156793   -0.499237   -1.682697
H      -0.911898   -2.871596   -1.533318
H       1.306601   -2.944046    0.149884
H       1.323881   -2.064256   -1.401981
