19

O      -0.107990    1.416824   -0.105142
C       0.010639    0.008922    0.031567
C      -1.391144   -0.577618    0.026542
C      -1.414779   -2.122996    0.126262
C      -2.853991   -2.420492    0.560923
O      -3.082211   -3.686606    1.108774
C      -3.132216   -1.299133    1.562456
O      -3.855359   -1.444161    2.518186
C      -2.271183   -0.096109    1.205942
H       0.772826    1.801312   -0.074030
H       0.598015   -0.426645   -0.792697
H       0.516355   -0.260226    0.974204
H      -1.867765   -0.278336   -0.914854
H      -1.136143   -2.615335   -0.808028
H      -0.731547   -2.473817    0.910530
H      -3.520138   -2.237747   -0.305558
H      -3.646827   -3.534106    1.882239
H      -1.667838    0.161165    2.085132
H      -2.877657    0.784604    0.981073
