14

O      -0.459901    1.232662   -0.115013
C      -0.062355   -0.105527   -0.124375
C       0.970358   -0.372511   -1.159873
N       1.772159   -0.586031   -1.963308
C       0.465979   -0.623670    1.210650
O       1.374142    0.217214    1.898162
C       0.131200   -0.055138    2.540092
C      -0.775448    1.112694    2.817964
O      -0.529707    2.251482    2.519689
H       0.160835    1.740046    0.429437
H      -0.944627   -0.700700   -0.393756
H       0.744084   -1.678909    1.185186
H       0.188942   -0.752030    3.380562
H      -1.688526    0.838658    3.388366
