15

N      -0.151156    1.421113    0.114039
C       0.100465    0.052262    0.044704
O       1.223244   -0.411312    0.046005
N      -1.050878   -0.708008    0.018754
C      -1.085100   -2.107306    0.002519
C      -2.228099   -2.883850    0.039919
N      -1.799923   -4.173305   -0.007051
N      -0.466730   -4.287414   -0.073537
C      -0.015763   -3.034844   -0.068151
H       0.683349    1.961144   -0.060500
H      -0.963321    1.773398   -0.371310
H      -1.924921   -0.239067    0.191624
H      -3.273576   -2.625565    0.094059
H      -2.363345   -5.005419    0.006105
H       1.036638   -2.817975   -0.109536
