20

C      -0.043345    1.527145   -0.003750
C       0.000965   -0.006305    0.001902
C       0.725842   -0.536608    1.245601
N      -1.370931   -0.509600    0.015170
C      -1.795767   -1.237028   -0.925288
O      -1.066734   -1.635172   -2.032292
C      -1.882864   -2.449005   -2.874594
C      -3.209978   -2.520683   -2.175618
C      -3.140574   -1.812957   -1.048760
H       0.969477    1.942848    0.021356
H      -0.544845    1.899704   -0.901957
H      -0.593382    1.895006    0.868301
H       0.545948   -0.343070   -0.889928
H       0.198070   -0.228439    2.153799
H       0.770607   -1.629748    1.234713
H       1.750067   -0.151496    1.289205
H      -1.948862   -1.987942   -3.869928
H      -1.410045   -3.433653   -2.995160
H      -4.056040   -3.071155   -2.564217
H      -3.904966   -1.647506   -0.304511
