19

C      -0.039731    1.577424    0.012731
C       0.008745    0.040427    0.000580
C       0.677496   -0.485066   -1.253652
C       1.834532   -1.142303   -1.196852
C       2.475510   -1.386594    0.157876
O       1.910297   -2.537975    0.773883
C       0.672564   -2.077765    1.324205
C       0.759120   -0.527347    1.221172
O       2.164189   -0.324529    1.034658
H       0.973413    1.985898    0.060811
H      -0.520532    1.962621   -0.892060
H      -0.602994    1.946610    0.876409
H      -1.023303   -0.337738    0.032700
H       0.187447   -0.288314   -2.204173
H       2.318251   -1.550076   -2.078406
H       3.559321   -1.510819    0.115122
H      -0.179004   -2.478188    0.761565
H       0.610202   -2.422376    2.360656
H       0.465415   -0.022754    2.144400
