18

C      -0.197603    1.457438    0.089668
N       0.081337    0.034793    0.007021
C       1.154472   -0.432427   -0.916291
C       1.841913   -1.155676    0.232583
O       2.365509   -2.413106    0.052666
C       2.190300   -0.198701    1.322624
C       0.718183   -0.615714    1.154966
C      -0.030933   -1.202378    2.210222
C      -0.659897   -1.703294    3.106602
H       0.684857    2.084304    0.309972
H      -0.625119    1.797651   -0.858848
H      -0.940573    1.629027    0.874408
H       0.764500   -1.107414   -1.684330
H       1.745072    0.361212   -1.393088
H       3.047089   -2.568661    0.712927
H       2.657983   -0.646260    2.195844
H       2.513953    0.818677    1.111922
H      -1.221393   -2.150443    3.888735
