18

O       0.004502   -0.013449   -0.185519
C      -0.007124    1.159013    0.046674
C      -1.052109    2.300096    0.051889
C      -0.799522    3.007189    1.394593
C       0.749046    3.007735    1.362592
C       1.594706    4.132799    1.877553
C       1.622397    2.782908    2.563002
C       1.003246    2.330935    0.025261
N      -0.047766    3.019881   -0.834373
H      -2.071959    2.185099   -0.310008
H      -1.215814    4.018125    1.389736
H      -1.216560    2.451732    2.239360
H       2.462463    4.432298    1.299047
H       1.091872    4.951471    2.382632
H       1.141648    2.689566    3.531349
H       2.510273    2.169129    2.448599
H       2.021299    2.253898   -0.352210
H      -0.054458    2.577221   -1.754695
