17

C       0.073661    1.512667   -0.161815
C      -0.022639    0.022923   -0.054935
O       0.464583   -0.744176   -1.163780
C      -0.268249   -1.842187   -0.551750
C       0.620319   -2.140192    0.677698
C       0.385874   -0.746710    1.310362
C      -1.124867   -0.831066    1.565447
O      -1.839725   -0.724960    2.519475
C      -1.329243   -0.849685    0.058745
H       1.123047    1.823064   -0.198776
H      -0.423753    1.870265   -1.067493
H      -0.393167    1.987525    0.706568
H      -0.536682   -2.637087   -1.244925
H       0.274487   -2.962865    1.309332
H       1.651438   -2.316562    0.366693
H       1.086463   -0.352899    2.041622
H      -2.258036   -0.651434   -0.468969
