15

N       0.030960   -1.078547   -0.037296
C       0.010166    0.077076   -0.045877
C      -0.069208    1.511472   -0.039805
C      -1.297305    2.181700    0.588149
O      -1.432759    3.425879   -0.097769
C      -0.173367    3.693416   -0.684501
C       0.965859    3.650387    0.365776
N       1.265079    2.210135    0.034070
C       0.392694    2.339103   -1.178774
H      -2.198770    1.582457    0.431337
H      -1.163964    2.335287    1.666515
H      -0.264540    4.545738   -1.354846
H       1.839507    4.240634    0.082159
H       0.699906    3.857656    1.405920
H       0.663467    1.982915   -2.164327
