20

C      -0.420931    1.520389    0.320350
C      -0.153402    0.070932   -0.062517
C       0.984305   -0.549889    0.747584
O      -1.393280   -0.627859    0.160226
C      -1.542202   -1.893930   -0.443312
C      -2.911809   -2.414212    0.022646
O      -3.946142   -1.533168   -0.330157
C      -1.471191   -1.806139   -1.919441
N      -1.385314   -1.741769   -3.069857
H       0.471646    2.129240    0.151695
H      -1.238841    1.930074   -0.277724
H      -0.693812    1.592888    1.378001
H       0.085733    0.018343   -1.133997
H       0.748453   -0.527611    1.816209
H       1.178927   -1.586623    0.457269
H       1.909136    0.011764    0.584989
H      -0.763026   -2.598503   -0.115788
H      -3.122151   -3.378233   -0.448991
H      -2.843406   -2.564806    1.110966
H      -3.676139   -0.659666   -0.021862
