20

O       0.081199    1.497416   -0.288428
C       0.149125    0.085108   -0.170660
C      -1.253337   -0.461661    0.070674
C      -2.081877    0.245723    1.171297
O      -3.178223    0.469123    0.263687
C      -2.375588    0.065052   -0.867689
C      -1.206801   -1.976089    0.137472
C      -1.119582   -2.719296    1.419918
N      -2.350163   -2.764640    0.612625
H       0.968980    1.833165   -0.440490
H       0.561673   -0.369412   -1.086170
H       0.801441   -0.215087    0.665086
H      -2.386541   -0.344325    2.044437
H      -1.630938    1.184751    1.510148
H      -2.077859    0.922080   -1.481368
H      -2.883555   -0.684981   -1.483649
H      -0.727132   -2.423786   -0.733521
H      -0.570799   -3.655403    1.472171
H      -1.120113   -2.147965    2.344984
H      -3.060026   -2.149566    1.005539
