17

C       0.064867    1.577339   -0.331696
C      -0.089387    0.085790   -0.119566
C      -1.433901   -0.407170    0.385479
C      -1.779684    0.092115    1.794102
O      -3.026241   -0.408957    2.250391
C       0.775856   -0.837577   -0.869772
O       1.042215   -0.549332    0.504643
H       1.063682    1.808901   -0.709178
H      -0.674533    1.945739   -1.051024
H      -0.075785    2.126868    0.604327
H      -2.228466   -0.101637   -0.305983
H      -1.419845   -1.503992    0.398256
H      -0.961585   -0.163702    2.483567
H      -1.885179    1.181524    1.802169
H      -2.939923   -1.362298    2.351109
H       0.435480   -1.851324   -1.079303
H       1.501713   -0.440706   -1.579067
