22

C       0.084349    1.621226    0.003261
C       0.133341    0.091962    0.029076
C       0.865006   -0.562927   -1.165783
O       1.926851    0.290769   -1.593107
C       1.361622   -1.904168   -0.576895
N       1.504369   -1.764617    0.881578
C       2.280473   -0.571886    1.283475
C       0.792658   -0.525673    1.267234
C       0.001444   -0.547005    2.552284
H       1.089273    2.047481    0.012524
H      -0.424523    1.983430   -0.895453
H      -0.462010    2.002474    0.871768
H      -0.898854   -0.285322    0.007199
H       0.172790   -0.727580   -2.003736
H       2.395966   -0.157685   -2.303351
H       0.621325   -2.691570   -0.763639
H       2.306748   -2.224168   -1.031265
H       2.795300   -0.682327    2.234685
H       2.827268   -0.029895    0.519456
H      -0.165537    0.468147    2.929820
H      -0.978513   -1.015452    2.403142
H       0.532430   -1.113009    3.321741
