19

C      -0.044064    1.458749    0.133909
C      -0.014249   -0.026146    0.017928
C      -0.008316   -0.855510   -1.041084
C      -0.029504   -0.612377   -2.510670
C       0.067169   -2.218228   -0.356369
O      -0.879154   -2.077617    0.765427
C       0.058607   -1.017119    1.177326
C       1.210305   -1.978955    0.699821
O       1.504142   -3.047192    1.538043
H       0.835245    1.837562    0.670305
H      -0.066262    1.939766   -0.848086
H      -0.923794    1.798639    0.694880
H      -0.052763    0.456206   -2.742560
H       0.853900   -1.040348   -3.001396
H      -0.905213   -1.077649   -2.980588
H      -0.040458   -3.140710   -0.927450
H      -0.057969   -0.684389    2.209019
H       2.149371   -1.537671    0.359473
H       0.647897   -3.404546    1.813131
