23

C      -0.005926    1.569875    0.007727
C      -0.004548    0.068187    0.024400
C      -0.772379   -0.810411   -0.979614
C      -1.130262   -1.804498    0.172113
C      -0.339171   -0.932132    1.150112
C       1.073640   -0.751150    0.667338
C       2.028544   -1.819953    0.104311
C       3.010321   -1.482403    1.264643
C       2.181979   -0.203916    1.583360
H       0.545127    1.958251   -0.858683
H      -1.025928    1.968018   -0.048137
H       0.463331    1.982340    0.906488
H      -1.656442   -0.312853   -1.387163
H      -0.185942   -1.209503   -1.814513
H      -2.201810   -1.819849    0.383950
H      -0.787439   -2.838706    0.058129
H      -0.605595   -0.737844    2.184476
H       1.658014   -2.847690    0.060068
H       2.429825   -1.555911   -0.879871
H       2.963536   -2.217252    2.072005
H       4.057735   -1.331932    0.994399
H       2.648593    0.705885    1.190758
H       1.923028   -0.030219    2.631808
