18

C       0.081708    1.354502    0.164931
O       0.054838   -0.049910    0.054028
C       0.641361   -0.578036   -1.129616
C       2.160159   -0.693098   -1.006689
C      -0.023688   -1.962921   -1.308972
O       0.133399   -2.739787   -0.132676
C      -1.433886   -1.824713   -1.696851
C      -2.587013   -1.710599   -2.015772
H       1.105645    1.752134    0.213710
H      -0.438809    1.834770   -0.676961
H      -0.434831    1.613372    1.092400
H       0.372806    0.052320   -1.990455
H       2.610944    0.275247   -0.772961
H       2.415310   -1.402659   -0.216035
H       2.595389   -1.044997   -1.947616
H       0.509782   -2.505418   -2.098337
H      -0.205746   -2.189670    0.585824
H      -3.607176   -1.618808   -2.296126
