9

N      -0.077435    1.193812   -0.252427
C      -0.019426   -0.005908    0.138605
N       1.184260   -0.693466    0.457612
N       1.217585   -1.917800    0.181408
N       0.061606   -2.454808   -0.321199
N      -1.161334   -1.969908    0.093368
N      -1.212487   -0.746266    0.353814
H       0.869976    1.574265   -0.323227
H       0.084984   -3.466494   -0.353531
