19

O       0.555255   -0.334911   -0.340319
C       0.233470    0.824313   -0.369323
C       1.210934    1.996210   -0.259558
C       1.069634    2.934080   -1.470890
O      -0.205593    3.523016   -1.614633
C      -0.421599    4.667837   -0.809909
C      -0.845076    4.352715    0.624083
C       0.137449    3.577510    1.466301
C       0.999967    2.624730    1.100628
H      -0.828945    1.133225   -0.462712
H       2.215286    1.560205   -0.298802
H       1.847256    3.711464   -1.410061
H       1.241793    2.357715   -2.386897
H       0.483356    5.295857   -0.802598
H      -1.219291    5.234307   -1.302218
H      -1.061531    5.307576    1.119818
H      -1.802526    3.812440    0.597150
H       0.110456    3.821094    2.526895
H       1.588125    2.161537    1.889590
