20

C      -0.091187    1.496532    0.130361
C      -0.004027   -0.009411   -0.048620
O       0.798011   -0.523187    1.017130
C       0.805550   -1.921973    1.170608
C       1.404035   -2.673094   -0.013204
C       1.355712   -2.291345    2.567983
O       0.061258   -2.865691    2.938989
C      -0.493898   -2.517135    1.729321
N      -1.661999   -2.652690    1.292200
H       0.906860    1.944515    0.123329
H      -0.675689    1.939825   -0.681382
H      -0.571804    1.744342    1.080868
H      -0.999607   -0.468520   -0.020843
H       0.453474   -0.250919   -1.019086
H       2.394358   -2.270371   -0.247816
H       1.501599   -3.738011    0.216523
H       0.767158   -2.583166   -0.896520
H       2.144410   -3.045656    2.606178
H       1.597054   -1.426702    3.188043
H      -2.275278   -3.085047    1.986381
