17

O       0.096255    1.404633    0.183974
C       0.004796    0.020174    0.065103
C      -0.477687   -0.816428    1.196102
N      -1.469803    0.020184    1.914125
C      -2.410981   -0.115453    0.752458
C      -3.063452    1.188097    0.263609
C      -3.978930    1.742859    1.257143
N      -4.699553    2.151700    2.062928
C      -1.303116   -0.740772   -0.098874
H      -0.236687    1.603112    1.074060
H       0.817587   -0.397599   -0.522065
H       0.055100   -1.626682    1.679205
H      -1.831839   -0.414452    2.754082
H      -3.189988   -0.854267    0.967606
H      -2.286612    1.918252    0.023203
H      -3.621052    0.987926   -0.658898
H      -1.460824   -1.466195   -0.886855
