14

O      -0.930902    1.147012    0.276192
C       0.207269    0.826746    0.019041
C       1.340232    1.773768    0.009442
C       1.315522    3.081550    0.329926
C       2.678679    3.647007    0.235537
C       3.731013    3.077154    1.141314
N       3.566977    2.573132   -0.231675
C       2.746592    1.375531   -0.292492
O       3.173274    0.278155   -0.530514
H       0.480344   -0.215325   -0.238327
H       0.431997    3.648785    0.595358
H       2.826656    4.634623   -0.190290
H       4.639712    3.644692    1.318370
H       3.404066    2.442156    1.960765
