18

O       0.327085    1.272859    0.467183
C       0.054191   -0.059542    0.057600
C      -1.421214   -0.408049   -0.091837
C      -2.091378    0.031420   -1.374318
C      -1.205943    0.728636   -2.395479
N       0.016621   -0.080547   -2.536265
C      -0.248789   -1.418244   -1.970058
C      -1.582085   -1.389008   -1.232922
C       0.673264   -0.476178   -1.273712
H      -0.106387    1.869963   -0.150349
H       0.496867   -0.680797    0.845740
H      -2.027446   -0.482106    0.803850
H      -3.154398    0.245953   -1.352519
H      -1.703082    0.762660   -3.371763
H      -0.943754    1.761793   -2.136914
H       0.063731   -2.287764   -2.536615
H      -2.227975   -2.255382   -1.192743
H       1.755913   -0.539150   -1.334996
