19

C      -0.008785    1.541882   -0.033050
C      -0.014666    0.046111    0.027153
C      -0.011173   -0.816304   -1.031734
O      -0.017541   -2.129167   -0.626060
C      -0.032820   -2.078465    0.724524
C      -0.031338   -0.807550    1.185065
C       0.016424   -0.788510    2.686287
C      -0.247576   -2.295716    3.041191
C       0.019147   -3.151626    1.755137
H       0.872260    1.961231    0.466656
H      -0.004772    1.897045   -1.067466
H      -0.889032    1.967650    0.462499
H      -0.016864   -0.661296   -2.098740
H       0.994649   -0.455153    3.057962
H      -0.729728   -0.135216    3.151875
H       0.357591   -2.630973    3.886868
H      -1.295702   -2.413295    3.330373
H      -0.729424   -3.940245    1.623564
H       0.999307   -3.646623    1.786248
