20

C      -0.206817    1.575945   -0.095293
C      -0.030859    0.075269    0.069132
C       1.167499   -0.626246   -0.575109
C       2.185598   -0.185062    0.519959
C       2.593139   -1.642108    0.685548
N       1.090366   -1.802497    0.437659
C       0.817349   -0.480226    1.230214
C       0.445842   -0.531916    2.691062
O       1.200062   -1.475065    3.435699
H       0.736132    2.113131    0.050923
H      -0.575635    1.818090   -1.097760
H      -0.931875    1.970725    0.624438
H      -0.973551   -0.468958   -0.066480
H       1.380366   -0.832137   -1.626580
H       2.787233    0.728554    0.561272
H       3.199199   -2.089377   -0.110075
H       2.924080   -1.980578    1.668259
H       0.622506    0.443663    3.157894
H      -0.633953   -0.739031    2.767301
H       1.008988   -2.340570    3.056683
