19

C       0.069283    1.515405    0.036160
C       0.024290   -0.016250   -0.042474
C       0.608836   -0.539881   -1.315389
O       2.028120   -0.179287   -1.665702
C       1.628344   -1.058770   -2.794683
C       0.919659   -2.000674   -1.782338
C       1.793713   -2.857136   -0.880905
C       0.348720   -0.188787   -2.807711
O      -0.336463    0.480015   -3.510666
H       1.100123    1.873944   -0.025959
H      -0.493140    1.963262   -0.788063
H      -0.361497    1.867089    0.977493
H       0.556841   -0.462052    0.806605
H      -1.011850   -0.372909    0.015618
H       2.379238   -1.276348   -3.551211
H       0.059530   -2.550837   -2.180835
H       2.646641   -2.285103   -0.510899
H       1.220644   -3.224015   -0.023028
H       2.168472   -3.730145   -1.424502
