15

N      -0.065991    1.225972    0.339282
C      -0.017600   -0.000752    0.030304
N      -1.154520   -0.784273   -0.073787
C      -1.046060   -2.086377   -0.721621
C      -0.004972   -2.004970   -1.885453
C       1.084264   -1.987323   -0.777975
O       1.163392   -0.672796   -0.192181
C       0.078333   -2.837638    0.043736
O       0.145511   -3.766152    0.786564
H       0.872394    1.615430    0.388091
H      -2.010024   -0.260154   -0.168160
H      -2.025470   -2.540909   -0.857623
H       0.036482   -2.923786   -2.475239
H      -0.053480   -1.125260   -2.529273
H       2.105356   -2.316588   -0.960527
