17

O       0.219946    1.230981   -0.535742
C       0.133130   -0.080787    0.015415
C      -1.279414   -0.563838    0.088509
C      -1.931175   -1.897628    0.209739
C      -2.647634   -1.882858    1.577653
N      -3.229820   -0.511298    1.585337
C      -2.562688    0.117912    0.702335
N      -3.233954    0.366224   -0.586710
C      -2.302942   -0.848207   -0.934874
H      -0.050259    1.854425    0.145948
H       0.708254   -0.729983   -0.654632
H       0.614475   -0.128688    1.003407
H      -1.444690   -2.798521   -0.160562
H      -3.499074   -2.566834    1.648923
H      -1.952842   -2.123116    2.396657
H      -2.749207    1.119281   -1.088816
H      -2.191571   -1.106019   -1.984226
