20

C       0.044989    1.425051   -0.282655
C      -0.034511   -0.050035    0.020516
C      -1.347247   -0.784297   -0.230361
C      -1.234973   -2.119786    0.536361
C      -0.222585   -1.868455    1.677478
C       0.657045   -3.059554    2.003249
O       0.799721   -4.021452    1.290324
C       0.642505   -0.700563    1.179705
N       1.209927   -0.815027   -0.171036
H       1.032142    1.817308   -0.027113
H      -0.122681    1.611067   -1.349731
H      -0.712969    1.983787    0.277586
H      -2.169132   -0.174842    0.165054
H      -1.548159   -0.930136   -1.298014
H      -2.199075   -2.460752    0.920428
H      -0.856338   -2.922526   -0.100962
H      -0.715059   -1.548584    2.605643
H       1.225064   -2.971456    2.956996
H       1.248392   -0.153712    1.897115
H       1.045420   -1.739122   -0.564908
