19

C      -0.002838    1.318771   -0.186355
C       1.506136    1.484882    0.068075
C       1.396469    0.096226    0.759071
O       0.020345   -0.038160    0.307203
C       2.267332   -1.014098    0.291063
C       3.182818   -1.687287    0.983971
C       3.848318   -2.707424    0.107474
O       3.227353   -2.567179   -1.167125
C       2.226644   -1.553769   -1.118057
H      -0.646563    1.962829    0.426693
H      -0.339702    1.369703   -1.227503
H       2.118665    1.483976   -0.834895
H       1.812547    2.311406    0.710178
H       1.439659    0.167750    1.854257
H       3.431864   -1.546534    2.028782
H       4.934223   -2.543299    0.015327
H       3.710512   -3.734146    0.484028
H       1.240928   -1.976346   -1.359507
H       2.443275   -0.783439   -1.875536
