15

O       0.282839    0.701278    0.997619
C      -0.109851    0.206554   -0.278129
C      -1.443109   -0.371737   -0.195726
C      -2.548998   -0.850041   -0.162852
C      -3.833228   -1.445188   -0.094341
N      -4.896448   -0.896690   -0.702864
N      -5.905617   -1.730299   -0.415605
C      -5.538068   -2.787639    0.351529
C      -4.191371   -2.641539    0.583716
H       1.162639    1.079408    0.898113
H      -0.118467    1.009811   -1.032835
H       0.593884   -0.561692   -0.639323
H      -6.821626   -1.518504   -0.773763
H      -6.247073   -3.538648    0.661490
H      -3.545863   -3.286811    1.155196
