19

C      -0.148479    1.537471    0.001204
C       0.005692    0.015641   -0.030951
C       0.803388   -0.447176   -1.253448
N       0.921650   -1.894152   -1.271853
C       1.171618   -2.670155   -0.166583
N       1.535092   -3.889984   -0.275059
C       0.946217   -2.011533    1.196940
O       1.005164   -2.685903    2.197723
C       0.698340   -0.515159    1.232777
H       0.828419    2.032660    0.046215
H      -0.669497    1.901988   -0.889979
H      -0.722148    1.854236    0.877478
H      -0.990565   -0.441309   -0.097453
H       0.297142   -0.136574   -2.173140
H       1.789910    0.049098   -1.247627
H       1.177264   -2.335716   -2.143311
H       1.602235   -4.283011    0.665648
H       1.687519   -0.038489    1.323000
H       0.151082   -0.276707    2.149159
