19

O       0.547058    0.678033   -0.837568
C      -0.004924   -0.295836    0.007293
C       0.073486   -0.126464    1.552590
C      -1.408165   -0.567129    1.679714
C      -2.437934    0.582038    1.806313
C      -2.374234    0.831006    0.273794
C      -1.543576   -0.466895    0.086487
C      -1.682168   -1.860831    2.368118
O      -0.840882   -2.629079    2.767637
H       0.248304    1.544246   -0.541819
H       0.453214   -1.240804   -0.297908
H       0.782462   -0.779834    2.062444
H       0.243474    0.906664    1.873362
H      -3.419831    0.211566    2.118773
H      -2.154439    1.405165    2.468203
H      -3.339960    0.833563   -0.234383
H      -1.849188    1.744265   -0.024639
H      -2.000447   -1.249718   -0.520139
H      -2.767188   -2.102811    2.468151
