16

O       0.352538    1.412521   -0.370950
C      -0.053348    0.165909    0.081105
C       0.080437   -0.092810    1.619530
C      -1.376015   -0.661454    1.647212
C      -1.597185   -0.052665    0.223893
C      -1.443106   -2.114155    1.686073
N      -1.478734   -3.270284    1.695698
C       0.605796   -0.923640   -0.742608
O       1.362063   -0.651479   -1.643795
H       0.962349    1.243542   -1.108972
H       0.880689   -0.747203    1.969427
H       0.139734    0.867173    2.134289
H      -2.018834   -0.257440    2.431527
H      -2.086802    0.920452    0.282008
H      -2.104928   -0.675755   -0.514359
H       0.360992   -1.970589   -0.478481
