21

C      -0.729145    1.226149   -0.055307
C       0.098610   -0.040656   -0.013485
O       1.299813    0.049274   -0.816582
C       2.126240   -0.508247    0.244165
C       2.654492   -1.880101   -0.129898
C       3.198069    0.503896    0.703544
C       2.536572    1.221705    1.854955
C       1.331908    0.729938    2.151438
C       0.937490   -0.401646    1.246876
H      -0.155571    2.079980    0.314370
H      -1.037232    1.435100   -1.084791
H      -1.633147    1.116245    0.554102
H      -0.511183   -0.895360   -0.343658
H       3.343079   -1.803605   -0.978256
H       3.194850   -2.331856    0.708953
H       1.837969   -2.549602   -0.416823
H       4.133836    0.016737    1.009465
H       3.444262    1.174360   -0.128665
H       3.015621    2.042678    2.378254
H       0.690521    1.097661    2.945223
H       0.617382   -1.303803    1.775764
