16

N       0.010407   -1.137474    0.021356
C      -0.013871    0.019271    0.032631
C      -0.040971    1.456136    0.038744
C      -0.700727    2.403617    1.069496
C      -0.059175    3.355247    0.035453
C       1.200708    2.424732   -0.039339
C       1.659419    2.420888   -1.489756
O       0.389388    2.415364   -2.173041
C      -0.527295    2.414804   -1.113877
H      -1.792004    2.381736    1.118015
H      -0.259328    2.398242    2.067653
H      -0.060261    4.443730    0.029550
H       1.936234    2.418546    0.763863
H       2.230085    3.315201   -1.764901
H       2.233015    1.529164   -1.765819
H      -1.555589    2.388729   -1.469901
