24

C       0.354756    1.384654   -0.378166
C       0.478455   -0.128872   -0.312014
O       0.478198   -0.513651    1.050309
C       0.587693   -1.917095    1.301423
C       1.864118   -2.185528    2.107726
C       3.148152   -1.765373    1.389942
C      -0.665929   -2.395379    2.043750
C      -1.964108   -2.187401    1.261322
H       1.191784    1.861312    0.140243
H       0.351605    1.722617   -1.418937
H      -0.572945    1.715075    0.098045
H      -0.358761   -0.603377   -0.848534
H       1.406559   -0.457473   -0.806615
H       0.655948   -2.450485    0.339459
H       1.782618   -1.649294    3.061567
H       1.902949   -3.254755    2.351282
H       4.028942   -1.962984    2.008672
H       3.276579   -2.310144    0.447500
H       3.130231   -0.695744    1.163234
H      -0.540500   -3.457777    2.287866
H      -0.721332   -1.858395    2.999044
H      -2.830399   -2.529743    1.835743
H      -2.109943   -1.128055    1.032669
H      -1.954328   -2.740916    0.315287
