19

C       0.028300    1.463101   -0.315947
N       0.126418    0.026718   -0.098799
C       1.471957   -0.540927    0.017703
C       0.572355   -0.443449    1.189927
C       0.793146    0.370618    2.486128
N       0.129603   -0.728894    3.195108
C      -0.129810   -1.543165    2.002944
C       0.010456   -1.044651    4.502397
O      -0.463182   -2.081989    4.919172
H       0.817703    2.045442    0.187903
H       0.091769    1.663653   -1.389407
H      -0.943476    1.820376    0.039141
H       1.632932   -1.492222   -0.483115
H       2.320192    0.143447   -0.013513
H       1.837349    0.533576    2.776295
H       0.254590    1.324800    2.536251
H      -1.192421   -1.674386    1.774228
H       0.360881   -2.521692    2.025063
H       0.393131   -0.236240    5.159925
