22

C      -0.230978    1.503679   -0.051286
C      -0.014330   -0.006936   -0.046655
C       1.226162   -0.481075   -0.861148
C       2.029589   -0.602780    0.468016
C       0.676389   -0.553486    1.238342
C       2.933473   -1.787854    0.663839
C       4.388407   -1.720683    0.266938
C       4.006324   -1.771037    1.725717
H       0.688133    2.042108    0.207958
H      -0.551192    1.854106   -1.038907
H      -0.999560    1.795051    0.673363
H      -0.951744   -0.506679   -0.309362
H       1.066283   -1.460658   -1.322739
H       1.613806    0.200076   -1.624587
H       2.600878    0.314987    0.649266
H       0.629082    0.070378    2.135911
H       0.327566   -1.557954    1.498296
H       2.445597   -2.747562    0.502924
H       4.845836   -2.598121   -0.176854
H       4.761049   -0.780591   -0.127097
H       4.122339   -0.864763    2.311470
H       4.202606   -2.682890    2.278969
