19

C      -0.023094    1.310171   -0.579631
C      -0.042526   -0.063023   -0.096325
C      -0.063068   -1.197576    0.302656
C      -0.080660   -2.579861    0.789589
C      -1.360376   -3.264672    0.590480
C      -2.411441   -3.830617    0.429161
C      -3.664398   -4.503045    0.241292
C      -4.497068   -4.236256   -1.003163
C      -3.813553   -5.561290   -0.841014
H       0.723721    1.445122   -1.369889
H      -0.996501    1.598328   -0.991737
H       0.216196    2.013519    0.225648
H       0.719936   -3.150135    0.296931
H       0.172018   -2.592846    1.859502
H      -4.228525   -4.682213    1.152212
H      -5.572985   -4.187527   -0.878843
H      -4.090953   -3.537471   -1.724477
H      -2.942980   -5.764147   -1.453084
H      -4.415540   -6.431482   -0.604624
