19

C       0.404684    1.687175    0.273415
O       1.407296    1.967830   -0.696349
C       1.915520    0.730975   -1.138610
C       3.117544    0.277965   -0.302045
O       2.813145    0.103949    1.068117
C       1.984055   -1.015985    1.350358
C       0.484420   -0.685024    1.320220
C       0.093533    0.173083    0.104574
O       0.844101   -0.189599   -1.058426
H       0.766501    1.913060    1.282000
H      -0.465689    2.315103    0.056704
H       2.207358    0.829102   -2.191749
H       3.520992   -0.651778   -0.735632
H       3.891551    1.050496   -0.352646
H       2.197027   -1.823061    0.636864
H       2.264352   -1.368625    2.348636
H      -0.070457   -1.630487    1.309801
H       0.188725   -0.154605    2.233296
H      -0.961277    0.015654   -0.137237
