12

N      -0.110250    1.330355   -0.042382
C      -0.005799    0.066502    0.028397
N      -1.073310   -0.802997    0.140149
C      -0.674723   -2.185259   -0.029122
C       0.856330   -2.102006   -0.003656
O       1.648044   -3.009578   -0.011853
N       1.138621   -0.751575    0.021758
H       0.797984    1.782315   -0.106944
H      -1.975605   -0.462828   -0.147250
H      -1.026616   -2.837336    0.777482
H      -0.992244   -2.625521   -0.984210
H       2.079436   -0.392685    0.037033
