23

C      -0.046689    1.556745    0.175276
C       0.037475    0.068384    0.050926
C       0.024833   -0.654503   -1.071205
C       0.078403   -2.147462   -0.818923
C       1.032189   -2.941280   -1.723675
C       0.570413   -3.043870   -3.171784
O       1.514505   -3.839992   -3.874378
C       0.473969   -2.208247    0.682054
C       0.096896   -0.829953    1.270740
H       0.823839    1.960164    0.708546
H      -0.102511    2.043519   -0.802369
H      -0.929368    1.856964    0.755211
H      -0.056764   -0.230489   -2.067295
H      -0.932241   -2.569514   -0.949728
H       2.030014   -2.486365   -1.700767
H       1.141724   -3.961039   -1.333832
H      -0.435222   -3.495550   -3.207550
H       0.490748   -2.040570   -3.619785
H       1.238438   -3.891334   -4.793952
H       0.005433   -3.044944    1.207322
H       1.558566   -2.348901    0.753482
H       0.815007   -0.478182    2.021570
H      -0.881518   -0.850973    1.773522
