23

C       0.054742    1.349708   -0.037101
O      -0.001183   -0.049942    0.078137
C      -1.302767   -0.568061   -0.123070
C      -1.225045   -2.079428   -0.029811
C      -0.976910   -2.706954    1.380268
C      -2.508178   -2.572879    1.624036
C      -2.571280   -2.863129    0.095392
C      -2.071966   -4.321465    0.040132
C      -0.853091   -4.201385    1.021261
H       1.090747    1.653323    0.133711
H      -0.254625    1.692245   -1.038061
H      -0.588164    1.849713    0.705692
H      -1.997848   -0.135953    0.614283
H      -1.676385   -0.275206   -1.120546
H      -0.547743   -2.430832   -0.817199
H      -0.240184   -2.287526    2.064865
H      -2.980788   -3.295216    2.297064
H      -2.823881   -1.565133    1.894179
H      -3.444955   -2.609651   -0.507917
H      -2.828143   -5.029608    0.391194
H      -1.773146   -4.621314   -0.968535
H       0.099854   -4.434100    0.537497
H      -0.952704   -4.849048    1.897160
