18

C      -0.064612    1.509857    0.084807
C      -0.022450    0.010255    0.074862
N      -1.271898   -0.796132    0.206007
C      -0.329301   -1.934429    0.500127
C       0.793871   -0.917128    0.998189
O       1.912376   -0.966390    0.088122
C       0.897760   -0.770066   -0.953544
C       0.221705   -2.162542   -0.929113
O       1.126211   -3.217949   -1.095076
H       0.949477    1.918863    0.043502
H      -0.625589    1.887479   -0.776428
H      -0.546823    1.885796    0.993865
H      -1.722603   -0.506949    1.074905
H      -0.693407   -2.788903    1.066067
H       1.044403   -0.783970    2.050676
H       1.294637   -0.354098   -1.878061
H      -0.593253   -2.277578   -1.644048
H       1.929040   -2.941408   -0.630122
