18

C       0.061561    1.508024    0.208652
C      -0.046856    0.012564   -0.120593
C      -1.449027   -0.504488   -0.071252
C      -2.731342   -0.133073   -0.892495
C      -3.602585   -0.492509    0.301618
C      -3.248309   -1.554475   -0.728688
C      -1.975618   -1.925167    0.088551
C      -2.331645   -0.860867    1.122471
H       1.099250    1.850981    0.151304
H      -0.527991    2.108746   -0.492007
H      -0.310841    1.714859    1.216965
H       0.379030   -0.175725   -1.116023
H       0.563896   -0.567123    0.584520
H      -2.910801    0.578828   -1.687780
H      -4.571171   -0.105100    0.588040
H      -3.895484   -2.130882   -1.376166
H      -1.425965   -2.849282    0.213460
H      -2.105730   -0.826939    2.180505
