16

C      -0.301456    1.133969    0.702881
C       0.312872   -0.208555    0.286323
C       0.734763   -0.232348   -1.166167
C       0.455477   -1.394554   -2.046443
O      -0.303464   -0.201472   -2.155222
C       1.927053    0.607653   -1.527569
O       2.701865    1.061991   -0.723867
C       2.120254    0.858236   -2.974223
N       2.331590    1.057558   -4.093167
H       0.424566    1.946718    0.615487
H      -1.166688    1.373503    0.078068
H      -0.633840    1.092968    1.743516
H       1.191126   -0.430700    0.900974
H      -0.409048   -1.016132    0.442502
H       1.099555   -1.618453   -2.894676
H      -0.055442   -2.245173   -1.598618
