13

C      -0.027671    1.523515    0.044176
C      -0.011662    0.034272   -0.040887
C      -0.030942   -0.812403   -1.111545
N      -0.002463   -2.112871   -0.666200
N       0.033647   -2.131724    0.616883
N       0.028869   -0.820737    1.040099
C       0.062673   -0.486831    2.409057
O       0.097277   -1.281136    3.300432
H       0.866851    1.916604    0.539073
H      -0.061576    1.941835   -0.963679
H      -0.901975    1.894740    0.589502
H      -0.063117   -0.577064   -2.163114
H       0.052932    0.607891    2.550084
