10

F      -0.008848    0.051537    0.003979
C      -0.013164    1.374784    0.010574
N      -1.189006    1.960151    0.029232
C      -1.163441    3.297591    0.035544
N      -0.087321    4.078991    0.024981
C       1.090115    3.440968    0.006049
C       1.197870    2.058534   -0.002241
H      -2.130110    3.794097    0.050900
H       1.980896    4.063971   -0.002791
H       2.146858    1.539189   -0.017520
