14

N       0.064509    1.437558    0.117361
C      -0.006786    0.022468   -0.014696
C      -1.350402   -0.662641    0.001701
C      -2.553328    0.112385    0.052083
C      -3.554497    0.776423    0.101337
C      -0.500030   -0.695957   -1.286779
C      -0.881124    0.091487   -2.418284
N      -1.156972    0.747224   -3.331121
H       0.769994    1.836101   -0.493074
H      -0.825257    1.875391   -0.098215
H       0.790751   -0.508339    0.498263
H      -1.396274   -1.614952    0.521016
H      -4.446053    1.352953    0.134583
H      -0.050615   -1.653322   -1.528560
