22

C      -0.136435    1.195127    0.556288
C      -0.535588   -0.275719    0.495160
N      -1.023479   -0.622229   -0.842463
C      -1.469973   -1.992929   -0.964403
C      -2.801957   -2.291773   -0.273644
O      -3.577339   -1.449568    0.108220
O      -3.018131   -3.615413   -0.180503
C      -4.276842   -4.013342    0.403131
C      -4.311523   -5.528855    0.432703
H       0.274106    1.445347    1.539040
H       0.613669    1.424233   -0.206203
H      -1.003171    1.843623    0.384768
H       0.340864   -0.904985    0.699527
H      -1.274724   -0.490280    1.285411
H      -1.806008   -0.013116   -1.066262
H      -1.599944   -2.253690   -2.023719
H      -0.707043   -2.675998   -0.576614
H      -4.352688   -3.580561    1.405518
H      -5.091799   -3.594853   -0.196061
H      -4.231721   -5.942093   -0.576732
H      -3.488251   -5.926496    1.032799
H      -5.253973   -5.870098    0.871308
