21

C      -0.252562    1.526660   -0.044255
C       0.099426    0.029859    0.032968
C       0.781171   -0.484624   -1.202276
C       2.038632   -0.931264   -1.263105
C       2.598602   -1.408587   -2.587700
C       1.524037   -1.238853   -3.671185
C       0.874291    0.162589   -3.629622
C       0.030058   -0.520537   -2.528325
O       0.278618   -1.808732   -3.171911
H       0.651240    2.133567   -0.157601
H      -0.907230    1.742661   -0.895385
H      -0.771214    1.852791    0.862531
H       0.739926   -0.150470    0.903615
H      -0.825198   -0.541050    0.200580
H       2.671555   -0.978525   -0.380329
H       3.504839   -0.848890   -2.858283
H       2.894914   -2.464034   -2.522226
H       1.816003   -1.662383   -4.635888
H       1.483814    1.026102   -3.357096
H       0.294582    0.359289   -4.533227
H      -1.037448   -0.302821   -2.442861
