15

O      -0.127460    1.431912    0.009705
C       0.024024    0.071077    0.014121
C       0.042982   -0.986215   -1.062363
C       1.297638   -1.637264   -0.487203
C       0.931366   -0.950363    0.857694
C      -0.385120   -1.653891    1.291403
C      -1.026620   -0.991347    0.075344
H       0.616640    1.822443   -0.462822
H      -0.270653   -0.899907   -2.095019
H       1.365111   -2.731302   -0.477830
H       2.206906   -1.220335   -0.930446
H       1.698706   -0.698202    1.586841
H      -0.366142   -2.748434    1.350340
H      -0.782309   -1.241788    2.222945
H      -2.075194   -0.892748   -0.174235
