21

C      -0.087634    1.646087   -0.161073
C       0.022180    0.137634   -0.019722
C       1.175869   -0.630745   -0.717614
O       2.345111    0.053198   -0.233237
C       2.202014   -0.312407    1.149666
C       2.403774   -1.849630    1.088267
C       2.393694   -2.600139    2.415121
C       1.042656   -1.776915    0.370113
C       0.627412   -0.525898    1.230706
H       0.887542    2.118581   -0.021465
H      -0.459540    1.923923   -1.153755
H      -0.781451    2.059747    0.578998
H      -0.930642   -0.358212   -0.240714
H       1.238815   -0.798200   -1.792138
H       2.773906    0.353079    1.795457
H       3.265527   -2.145501    0.480642
H       1.547038   -2.315245    3.047410
H       2.330863   -3.680978    2.249679
H       3.312515   -2.405616    2.979062
H       0.391805   -2.626639    0.168910
H       0.139709   -0.567964    2.202096
