18

C      -0.015735    1.520511    0.022854
C       0.012520    0.010080    0.026572
C       0.960491   -0.806378   -0.909472
C       0.709974   -1.950571    0.127945
C       0.653226   -0.806914    1.194240
C      -0.776510   -2.186834   -0.089198
O      -1.379081   -3.222255   -0.177619
C      -1.321949   -0.743241   -0.168551
H       0.987436    1.935154    0.169202
H      -0.403230    1.906549   -0.926823
H      -0.658240    1.906065    0.822605
H       0.655468   -0.970572   -1.947381
H       1.991846   -0.446873   -0.871374
H       1.345754   -2.828014    0.220579
H       1.652367   -0.447471    1.452899
H       0.064094   -0.971595    2.101466
H      -2.057297   -0.551962    0.620165
H      -1.800942   -0.551547   -1.134581
