21

O      -0.073465    1.373986    0.136453
C       0.014288   -0.020667   -0.011237
C      -0.485294   -0.633615   -1.296769
C      -1.298757   -0.742467   -0.016439
C      -1.349287   -2.032926    0.801128
C      -0.722298   -1.824970    2.180694
C       0.534431   -2.554412    2.586963
C       0.608171   -1.103086    2.181565
C       1.119776   -0.699943    0.799376
H       0.656988    1.767754   -0.353632
H      -0.852994    0.047325   -2.056932
H       0.002026   -1.526216   -1.679799
H      -2.174238   -0.103264    0.036021
H      -2.381992   -2.379653    0.900461
H      -0.816759   -2.828262    0.266785
H      -1.418228   -1.572647    2.974739
H       0.670318   -2.806471    3.633478
H       0.936286   -3.294201    1.899336
H       0.777071   -0.378932    2.971657
H       1.481165   -1.583589    0.262009
H       1.974411   -0.021224    0.885708
