17

O       0.748152    0.388746    1.245839
C       0.332614    1.259764    0.509077
N       1.016528    1.775226   -0.547776
C       2.362541    1.341775   -0.877868
C       3.456487    2.177924   -0.217376
C       3.825184    1.876222    1.228891
C       4.774353    1.501296    0.132532
C       3.493359    3.550786   -0.651498
N       3.482447    4.646982   -1.023012
H      -0.669829    1.715634    0.617593
H       0.615270    2.549849   -1.052308
H       2.458407    0.308595   -0.536873
H       2.482517    1.360090   -1.965305
H       4.084165    2.716784    1.861290
H       3.235537    1.101420    1.704249
H       4.865522    0.456482   -0.143582
H       5.680473    2.082366    0.011397
