20

C      -0.001077    1.272644   -0.552858
N      -0.181163   -0.139681   -0.282213
C      -1.358711   -0.657903    0.176044
O      -2.352871    0.021406    0.366849
C      -1.328786   -2.158396    0.463382
C      -2.634660   -2.820144    0.081931
C      -2.829186   -3.390701   -1.310069
C      -2.705566   -4.303705   -0.113636
O      -1.517981   -5.021825    0.081519
H       0.773896    1.709516    0.087492
H       0.271292    1.447805   -1.599795
H      -0.952899    1.763057   -0.345483
H       0.597323   -0.762543   -0.416106
H      -0.488282   -2.652450   -0.031857
H      -1.161283   -2.272193    1.543090
H      -3.501251   -2.345853    0.528729
H      -3.792260   -3.279591   -1.795943
H      -1.975017   -3.358198   -1.979762
H      -3.603890   -4.814605    0.232958
H      -1.494626   -5.733722   -0.566049
