13

O       0.048086    0.047616    0.151374
C      -0.016415    1.226414    0.060213
O      -1.156590    1.974213   -0.053212
C      -0.737053    3.299498   -0.191343
C       0.578036    3.315860   -0.108441
O       1.209390    4.489132   -0.023059
C       0.089517    5.443115   -0.202793
C      -1.281467    4.677500   -0.034506
O       1.105073    2.077109    0.031198
H       0.236832    6.236775    0.528545
H       0.183364    5.845585   -1.213651
H      -1.992359    5.004002   -0.799608
H      -1.739347    4.855038    0.947463
