13

N       0.133377    1.323089    0.171628
C      -0.056840   -0.036076    0.046805
C      -1.153585   -0.832443   -0.024877
N      -0.634769   -2.133886   -0.001443
N      -1.032893   -3.430217   -0.059278
C       0.151755   -4.048788   -0.027782
N       1.269673   -3.257842    0.039600
C       0.702900   -2.075041    0.054618
O       1.108265   -0.785155    0.096387
H       0.929594    1.664640   -0.353029
H      -0.696933    1.862650   -0.029024
H      -2.200445   -0.600615   -0.084434
H       0.212233   -5.126190   -0.052775
