19

O       0.203093    1.218869   -0.228121
C       0.062743   -0.159007   -0.037219
C      -0.397971   -0.679631    1.304718
C      -1.343522   -0.666717    0.116550
C      -2.548244    0.226554    0.007832
C      -3.351555    0.165106   -1.287900
C      -3.920368   -0.456640   -0.061648
C      -2.581918    1.553921    0.691204
O      -3.483826    2.349797    0.557597
H       0.990058    1.511656    0.243237
H       0.760664   -0.769923   -0.609548
H      -0.023389   -1.635601    1.654905
H      -0.551726    0.054182    2.088240
H      -1.517460   -1.640835   -0.332881
H      -3.778531    1.104582   -1.618209
H      -2.960154   -0.477020   -2.068905
H      -3.928944   -1.537420    0.028312
H      -4.732870    0.061065    0.434714
H      -1.728370    1.780419    1.356121
