20

C      -0.156050    1.533969   -0.137955
C       0.058913    0.018672    0.034433
C       0.701229   -0.539729   -1.159722
N       1.197285   -0.985106   -2.103761
C       0.891029   -0.349608    1.302669
O       2.158184    0.288808    1.278124
C       0.127454   -0.082385    2.579840
C      -0.790210   -1.137669    3.149333
C       0.512712   -0.820541    3.836071
H       0.805756    2.047770   -0.206770
H      -0.717018    1.742053   -1.051584
H      -0.720337    1.941776    0.704774
H      -0.916162   -0.474639    0.133416
H       1.106796   -1.423275    1.248204
H       2.074930    1.146107    1.707206
H      -0.193595    0.948929    2.710666
H      -1.714849   -0.815395    3.614351
H      -0.866156   -2.081971    2.619849
H       1.316470   -1.545136    3.762827
H       0.482705   -0.282491    4.776672
