17

O      -0.035366    1.395988    0.041514
C       0.021317   -0.023133   -0.012332
C      -1.393086   -0.523634    0.005940
C      -2.282771   -0.421732    1.264241
C      -2.881617   -1.716513    0.749285
C      -2.920375   -1.661687   -0.744712
C      -2.346536   -0.331534   -1.193764
N      -1.651185   -2.068868   -0.044075
H       0.865020    1.733056    0.031491
H       0.521132   -0.378364   -0.927478
H       0.567192   -0.443881    0.847013
H      -1.700386   -0.591732    2.173954
H      -2.915723    0.462361    1.385352
H      -3.417244   -2.476550    1.307249
H      -3.485618   -2.379832   -1.328361
H      -2.983228    0.557852   -1.216862
H      -1.812356   -0.433346   -2.142414
