19

O      -0.157253    1.425210   -0.082854
C      -0.077377    0.031752   -0.006846
C      -0.547970   -0.680816    1.242034
C      -1.374789   -0.711246   -0.014602
C      -2.728211   -0.048608   -0.281062
C      -2.898224   -1.017030   -1.504726
C      -1.723870   -1.885943   -0.931264
C      -4.183153   -1.649747   -1.712748
C      -5.250513   -2.184469   -1.862153
H       0.506901    1.796161    0.507206
H       0.757297   -0.410629   -0.553794
H      -0.029046   -1.582854    1.552372
H      -0.910821   -0.058435    2.054728
H      -3.466206   -0.253752    0.498857
H      -2.714504    1.019745   -0.501151
H      -2.575094   -0.514198   -2.421352
H      -0.966288   -2.216729   -1.646605
H      -2.101489   -2.752766   -0.381989
H      -6.192773   -2.653238   -2.001287
