20

C       0.034069    1.513375   -0.331528
C       1.467524    1.612463    0.313039
C       1.408283    0.092926    0.634566
C       0.846966   -0.390410    2.000925
C      -0.586454   -0.489519    1.356347
C       0.007483   -0.003909    0.004661
C       0.525819   -1.038495   -1.032911
C       1.959351   -0.939399   -0.388287
H      -0.736295    2.107424    0.169440
H      -0.006146    1.746923   -1.399753
H       2.263132    1.903761   -0.379363
H       1.532381    2.264266    1.189549
H       1.257629   -1.340812    2.355020
H       0.934730    0.335432    2.815014
H      -1.011204   -1.497692    1.334742
H      -1.333884    0.178553    1.794887
H       0.060330   -2.026558   -0.967092
H       0.467690   -0.710498   -2.075190
H       2.736589   -0.553639   -1.054919
H       2.329333   -1.869709    0.053206
