19

C       0.134009    1.606266   -0.065155
C      -0.011022    0.109308   -0.004777
C       0.286030   -0.787031   -1.244980
C      -0.659453   -1.814907   -0.626337
C      -0.466648   -1.773225    0.865689
C       0.598025   -0.720004    1.166160
C      -1.353877   -0.715330    0.191707
C      -2.775287   -0.454346    0.368170
O      -3.618422   -1.316589    0.500968
H       1.184580    1.885273   -0.208846
H      -0.438654    2.031970   -0.896351
H      -0.211424    2.080790    0.859807
H      -0.134057   -0.361584   -2.160477
H       1.330096   -1.075777   -1.414734
H      -1.173679   -2.636261   -1.107370
H      -0.836039   -2.563161    1.505999
H       1.652907   -1.006590    1.080265
H       0.421730   -0.242130    2.133713
H      -3.056039    0.623496    0.374633
