19

C      -0.335744    1.351776   -0.087396
O      -0.242645   -0.052777   -0.131248
C       0.829652   -0.505113   -0.923683
C       0.841787   -2.008142   -0.900198
O       0.040425   -2.688807   -1.887582
C       1.441489   -2.790539   -1.977914
C       2.278787   -2.396792   -3.193562
O       3.050859   -3.610294   -3.059995
C       2.233045   -4.094830   -1.970392
H       0.573881    1.808484    0.334587
H      -0.502863    1.781180   -1.087643
H      -1.186083    1.601808    0.550966
H       0.733065   -0.153338   -1.963898
H       1.790296   -0.124379   -0.530902
H       0.784475   -2.447435    0.096374
H       1.711387   -2.359628   -4.132258
H       2.902194   -1.498543   -3.105990
H       2.824256   -4.314299   -1.073469
H       1.642528   -4.977114   -2.248163
