19

O      -0.055820    0.157435   -0.755980
C      -0.095397    1.271633   -0.309891
C      -1.222589    2.219486    0.123704
C      -1.541746    2.126048    1.652049
C      -0.505385    3.250408    1.948927
C      -0.119709    3.308016    0.446716
C       0.954927    2.300592    0.012494
C       2.340158    2.034875    0.553884
C       2.182035    2.536194   -0.845930
H      -2.058734    2.358068   -0.561817
H      -2.571004    2.403692    1.886939
H      -1.342972    1.151334    2.103981
H      -0.972067    4.171132    2.306982
H       0.308946    2.991887    2.631124
H      -0.093898    4.282700   -0.040838
H       2.712746    2.721530    1.307224
H       2.614823    0.995707    0.702036
H       2.338124    1.841502   -1.664580
H       2.442086    3.567684   -1.058648
