20

C      -0.103082    1.421875    0.020915
C       0.014657   -0.070414   -0.061014
C      -0.511014   -1.017840   -1.130891
N      -0.327676   -2.170468   -0.166827
C      -0.315583   -1.115923    0.965436
C       1.134071   -0.869023    0.653996
C       1.191695   -2.218817   -0.039400
C       1.561296   -3.419785    0.818658
O       1.093790   -4.608982    0.215219
H       0.540025    1.913638   -0.717834
H      -1.133193    1.747361   -0.162814
H       0.189590    1.790251    1.009809
H      -1.577642   -0.869750   -1.325327
H       0.025086   -1.129718   -2.080875
H      -0.914285   -1.138364    1.864975
H       1.875663   -0.364657    1.262091
H       1.694933   -2.293234   -1.011210
H       2.649671   -3.505524    0.910799
H       1.150765   -3.288345    1.833686
H       0.178589   -4.415492   -0.031928
