15

O       0.075786    1.377593   -0.030807
C       0.013982   -0.017899    0.002845
C       0.840632   -0.535993    1.082035
C       1.529410   -0.984446    1.958064
C      -1.368112   -0.701638   -0.076099
C      -1.685251   -0.714203   -1.573458
O      -0.618446   -0.033399   -2.257608
C       0.283838   -0.747958   -1.365626
C      -0.826245   -1.787544   -1.005512
H      -0.285454    1.616612   -0.897447
H       2.138170   -1.368791    2.738889
H      -2.118301   -0.780987    0.699002
H      -2.676336   -0.707135   -2.005570
H       1.283841   -0.895947   -1.764480
H      -0.874051   -2.865230   -0.981959
