19

C      -0.055350    1.601165   -0.065589
C       0.043265    0.086411    0.015160
C       0.996691   -0.672238   -0.955208
C       1.461439   -1.579227    0.221833
C       2.944376   -1.541375    0.587760
O       3.142425   -0.319541    1.320811
C       1.962879    0.209328    1.759212
O       1.927165    1.178918    2.461467
C       0.791778   -0.593987    1.209517
H       0.929933    2.073778   -0.016067
H      -0.528488    1.901104   -1.007131
H      -0.652907    2.004976    0.757631
H      -0.958870   -0.351027   -0.041659
H       0.535466   -1.173098   -1.808809
H       1.805244   -0.032763   -1.325002
H       1.059905   -2.592322    0.192449
H       3.236216   -2.379661    1.231289
H       3.608117   -1.519830   -0.281538
H       0.178934   -0.958522    2.036002
