16

N      -0.304243    1.136396   -0.444985
C      -0.112098   -0.188704   -0.202983
O       0.681118   -0.870388   -0.824385
C      -0.945806   -0.778522    0.951250
N      -0.966388   -2.227749    0.965745
C      -1.798667   -2.821258   -0.075461
C      -1.986422   -4.308911    0.173607
O      -2.269884   -5.109097   -0.678356
H       0.262192    1.589179   -1.143823
H      -0.951836    1.692029    0.085839
H      -0.506619   -0.412420    1.889697
H      -1.972859   -0.395740    0.916647
H      -0.008074   -2.536981    0.821144
H      -2.802664   -2.374212   -0.011930
H      -1.441862   -2.671298   -1.104485
H      -1.854142   -4.599869    1.240707
