20

C      -0.369265   -0.732155   -0.700131
C      -0.305339    0.340985   -0.162779
C      -0.217847    1.650209    0.492207
O       1.103917    2.100345    0.702671
C       1.801085    2.415190   -0.490484
C       3.191779    2.894845   -0.095102
N       3.960253    3.227114   -1.286962
C       3.890517    4.614820   -1.737762
C       5.119813    4.086289   -1.085640
H      -0.429530   -1.681749   -1.172007
H      -0.790927    2.387640   -0.094724
H      -0.678238    1.596151    1.484635
H       1.879611    1.538229   -1.146668
H       1.267643    3.203250   -1.048287
H       3.097916    3.745013    0.603856
H       3.707261    2.089004    0.438760
H       3.853845    4.763514   -2.813029
H       3.282694    5.309708   -1.159364
H       5.330467    4.429630   -0.073760
H       5.998420    3.840983   -1.675446
