14

C      -0.005954    1.489947    0.128369
O       1.246886    2.041346   -0.335495
C       2.259437    1.248320   -0.776163
N       2.312682   -0.018667   -0.864088
C       1.147404   -0.665905   -0.439391
C       0.041231    0.004644    0.031550
N      -0.876641   -0.936285    0.343305
N      -0.432819   -2.194211    0.102111
C       0.798856   -2.033797   -0.374326
H      -0.153703    1.845395    1.157844
H      -0.801306    1.932079   -0.488022
H       3.096759    1.873182   -1.072847
H      -1.803921   -0.816687    0.714873
H       1.390254   -2.892962   -0.652523
