14

N      -0.097717    1.509689    0.109692
C      -0.047426    0.108777   -0.042009
C      -1.133763   -0.942183   -0.113817
O      -0.380189   -1.725824   -1.067220
C       0.613386   -0.747478   -1.115409
O       1.541370   -0.688916   -1.850378
C      -0.361901   -0.819024    1.164098
C       0.531197   -1.824332    1.661612
C       1.281074   -2.658687    2.092160
H       0.735179    1.862659    0.569752
H      -0.182812    1.979501   -0.785799
H      -2.203688   -0.874838   -0.248588
H      -0.893118   -0.243595    1.920556
H       1.943468   -3.401780    2.462288
