17

C       0.025741    1.557910    0.048301
C      -0.020391    0.060033   -0.045102
C       0.006538   -0.629419   -1.182203
C      -0.104699   -2.127287   -1.187290
C       0.389198   -2.767339    0.090700
N       0.827209   -3.956009    0.090457
O       0.354872   -2.030522    1.234261
C      -0.141906   -0.688611    1.254688
H       0.909809    1.896238    0.603350
H       0.047917    2.015701   -0.943721
H      -0.848740    1.952292    0.582229
H       0.080257   -0.120950   -2.139533
H      -1.154343   -2.424556   -1.336154
H       0.448674   -2.581486   -2.011896
H       1.104142   -4.225898    1.036711
H       0.426511   -0.185875    2.045218
H      -1.192744   -0.708249    1.585097
