17

C      -0.009345    1.512107    0.073742
C       1.404715    2.094180   -0.070871
N       2.123472    1.382330   -1.113392
N       3.151490    1.926554   -1.787854
C       3.657554    0.913432   -2.493272
C       2.970318   -0.292136   -2.254452
C       1.980253    0.046104   -1.343451
C       0.920920   -0.669837   -0.661014
C      -0.012146    0.001426    0.027255
H      -0.446010    1.875048    1.009427
H      -0.651303    1.895096   -0.733527
H       1.385169    3.152813   -0.335319
H       1.953846    1.992062    0.875193
H       4.494855    1.089837   -3.152426
H       3.147702   -1.261818   -2.691035
H       0.904799   -1.751230   -0.739651
H      -0.822919   -0.524982    0.519950
