17

O      -0.071794   -0.012680   -0.119508
C      -0.017700    1.173043    0.031166
C      -1.046789    2.314141    0.064833
C      -0.788870    3.035271    1.400840
C      -0.956842    4.545871    1.096645
C       0.302850    4.355533    0.239854
C       0.783264    3.199851    1.174052
C       1.077667    2.232307   -0.007191
C       0.028984    3.169870   -0.738195
H      -2.074113    2.175815   -0.265633
H      -1.202027    2.580083    2.300357
H      -1.884118    4.880466    0.620189
H      -0.752406    5.158598    1.980489
H       0.936436    5.171774   -0.103767
H       1.435798    3.324439    2.035334
H       2.098868    2.048920   -0.331355
H      -0.058789    3.246804   -1.818655
