13

N      -0.062318    1.334438    0.009007
C       0.091121   -0.016053    0.001646
O       1.155469   -0.585897   -0.010216
C      -1.253245   -0.778826    0.009237
N      -1.035122   -2.204790   -0.000296
N      -0.894614   -2.924961   -1.102676
N      -0.655760   -4.129200   -0.688731
N      -0.644882   -4.136551    0.660922
N      -0.876766   -2.936889    1.091766
H       0.765055    1.908479    0.004566
H      -0.960724    1.785170    0.018406
H      -1.827903   -0.535773    0.905748
H      -1.843558   -0.526175   -0.874359
