21

C      -0.143361    1.522351   -0.078042
C       0.062568    0.018100    0.010098
O       0.870047   -0.444602   -1.084368
C       1.950707   -1.251327   -0.504806
C       2.552700   -2.108664   -1.590572
C       1.224201   -1.907872    0.685210
C       0.820357   -0.530339    1.268955
C       2.173498    0.157627    1.300586
C       2.857295   -0.269294    0.233555
H       0.809879    2.053096   -0.016907
H      -0.613820    1.778805   -1.031844
H      -0.797761    1.871201    0.728655
H      -0.915172   -0.483820   -0.043628
H       2.958216   -1.483875   -2.392331
H       3.365292   -2.720703   -1.187327
H       1.796792   -2.769125   -2.024352
H       0.378899   -2.527343    0.369322
H       1.887125   -2.472532    1.342934
H       0.230312   -0.513188    2.185169
H       2.460617    0.930791    2.002043
H       3.815461    0.079981   -0.131197
