23

C       0.087467    1.547922   -0.093494
C       0.015028    0.027236    0.048696
O       0.546709   -0.512880   -1.153114
C       0.878226   -1.909703   -1.142308
C      -0.372628   -2.768028   -0.889166
C       1.431549   -2.180158   -2.541151
C       1.955138   -2.165026   -0.066957
C       1.633770   -1.450653    1.217853
C       0.743143   -0.464370    1.270369
H       1.129537    1.871917   -0.165559
H      -0.438695    1.863493   -0.998392
H      -0.375046    2.037821    0.768845
H      -1.051096   -0.253306    0.140028
H      -1.171402   -2.476155   -1.577599
H      -0.148472   -3.826566   -1.054096
H      -0.738303   -2.661270    0.135598
H       2.257686   -1.496818   -2.756467
H       1.797634   -3.208566   -2.620415
H       0.655517   -2.027697   -3.296764
H       2.050117   -3.243422    0.113269
H       2.933542   -1.834866   -0.442420
H       2.155871   -1.769139    2.116632
H       0.501010    0.027893    2.208899
