19

C       0.040523    1.510318    0.037805
C      -0.005691   -0.040454   -0.024904
C       0.736631   -0.635886    1.201844
C      -1.408303   -0.486171   -0.008237
C      -2.556894   -0.835810    0.036657
C       0.646896   -0.497686   -1.261993
C       1.215570   -0.847502   -2.264586
C       1.869969   -1.336489   -3.478262
O       2.432148   -2.633794   -3.335943
H       1.079696    1.850003    0.030395
H      -0.477482    1.946157   -0.818803
H      -0.443260    1.858335    0.954486
H       0.257145   -0.299098    2.124981
H       0.713723   -1.727136    1.173767
H       1.779168   -0.306890    1.198603
H      -3.570677   -1.150954    0.063354
H       1.154338   -1.299147   -4.315297
H       2.704272   -0.679517   -3.748382
H       1.740553   -3.209601   -2.993254
