21

C       0.293838    1.061314   -0.335234
O      -0.345248    0.000407    0.342660
C       0.484491   -0.631134    1.270012
C       0.201344   -2.035112    1.713736
C       0.000867   -2.414689    3.153197
C      -0.319500   -2.840207    0.510824
C       0.996579   -2.536196   -0.273325
C       1.482649   -1.700880    0.913887
O       2.785348   -1.695161    1.390664
H       1.174307    0.715714   -0.897407
H      -0.430463    1.483919   -1.035745
H       0.616575    1.851637    0.360376
H       0.832951    0.023073    2.074054
H      -1.035938   -2.244746    3.467524
H       0.228826   -3.473952    3.316716
H       0.650777   -1.829492    3.811165
H      -0.432923   -3.902115    0.741737
H      -1.242234   -2.467894    0.061230
H       1.611114   -3.428902   -0.407778
H       0.895766   -2.020598   -1.233337
H       3.260910   -0.964304    0.980875
