17

O      -0.241595    1.448638    0.054457
C      -0.129294    0.045347    0.077388
C      -0.469222   -0.769600    1.281518
C      -1.570076   -0.090293    2.094094
C      -2.504712   -0.104856    0.835072
O      -3.053660    1.088150    0.363647
C      -1.382960   -0.776354   -0.000041
C      -1.584494   -1.782247   -0.984958
C      -1.778209   -2.637601   -1.809855
H       0.438727    1.818602    0.628006
H       0.685814   -0.341990   -0.531424
H       0.174005   -1.570230    1.625636
H      -1.952947   -0.706283    2.909512
H      -1.330393    0.903837    2.481424
H      -3.334745   -0.800075    0.976051
H      -2.308409    1.670426    0.165317
H      -1.950185   -3.387729   -2.541050
