17

N       0.648463   -0.201421    0.177557
C      -0.548985    0.172295   -0.381223
O      -0.650648    0.915881   -1.333207
N      -1.651200   -0.396753    0.304506
C      -2.885634   -0.608256   -0.425034
C      -2.081675   -1.779049    0.038487
C      -1.341350   -2.611063   -0.957956
C      -0.566200   -3.788638   -0.548218
O      -1.853593   -3.930348   -1.152060
H       1.448369    0.336843   -0.114350
H       0.645191   -0.530536    1.129068
H      -3.793483   -0.331441    0.102368
H      -2.866775   -0.370088   -1.485202
H      -2.406170   -2.329758    0.919521
H      -1.050390   -2.093594   -1.872650
H       0.276329   -4.115728   -1.154999
H      -0.514585   -4.058361    0.506164
