19

O      -0.611036    0.633078   -0.873274
C       0.166263    0.921427    0.000098
C       1.199525    2.036138   -0.049748
C       1.139944    2.847710   -1.368690
C       0.458104    4.194367   -1.136752
C      -0.732534    4.090895   -0.161963
C       0.393329    4.251228    0.880866
C       1.072687    2.927094    1.228990
O       1.215844    4.914769   -0.118523
H       0.183168    0.346242    0.955947
H       2.156414    1.499515    0.015187
H       2.149022    3.038790   -1.745444
H       0.598675    2.265989   -2.121403
H       0.345492    4.776832   -2.054635
H      -1.369938    4.975043   -0.203702
H      -1.339606    3.184490   -0.166338
H       0.221587    4.878723    1.759906
H       0.516716    2.397366    2.013975
H       2.062349    3.154967    1.635110
