20

C       0.136592    1.586148   -0.343498
C      -0.001039    0.100931   -0.008371
N       0.504757   -0.717275   -1.130646
C       1.426656   -1.437312   -0.647280
O       1.731068   -1.355042    0.667608
C       0.792850   -0.411619    1.240143
C       1.435268    0.594153    2.226676
C       0.267285    0.316768    3.212129
C      -0.046065   -0.978336    2.413248
H       1.185554    1.863917   -0.485594
H      -0.395820    1.796629   -1.274416
H      -0.286984    2.215371    0.445592
H      -1.066360   -0.125973    0.122608
H       2.030018   -2.146183   -1.204504
H       2.381347    0.190752    2.596162
H       1.597663    1.618185    1.887022
H       0.522342    0.201978    4.266792
H      -0.531076    1.058701    3.126815
H      -1.092045   -1.219387    2.205245
H       0.444581   -1.854721    2.844245
