21

C       0.884906    0.446003   -0.653387
C       0.011629    0.207093    0.582902
C      -1.437197   -0.173751    0.247211
C      -1.581281   -1.606945   -0.273006
O      -1.187420   -2.555689    0.698631
O      -2.267873   -0.145048    1.413622
C      -2.726851    1.137983    1.793057
C      -3.601090    1.022797    2.953358
C      -4.323656    0.952998    3.909802
H       1.896229    0.743755   -0.361493
H       0.975672   -0.453978   -1.269453
H       0.474865    1.242089   -1.285445
H       0.432381   -0.593629    1.199253
H       0.009213    1.114108    1.197951
H      -1.843199    0.519283   -0.509223
H      -2.625708   -1.761036   -0.584055
H      -0.943422   -1.761985   -1.148404
H      -1.692144   -2.343703    1.493217
H      -1.887938    1.808643    2.036507
H      -3.276407    1.607960    0.959974
H      -4.962692    0.886817    4.755449
