15

C      -0.120037    1.728163    0.140691
C       0.057638    0.225832   -0.001356
C       0.703858   -0.330085   -1.285912
C       1.764256   -0.913700   -0.332773
O       1.150394   -0.280708    0.818785
C      -1.201416   -0.510345    0.439991
O      -1.942454   -1.116941   -0.288327
H       0.822657    2.236511   -0.080064
H      -0.889499    2.090959   -0.549078
H      -0.417944    1.988902    1.161877
H       0.082691   -1.044204   -1.826371
H       1.072001    0.435592   -1.970146
H       1.765523   -2.005916   -0.240695
H       2.792112   -0.565201   -0.477877
H      -1.366071   -0.459058    1.540388
