15

O      -0.126398    1.311981    0.203044
N       0.011838   -0.085985    0.160688
C      -1.101957   -0.644694   -0.055682
C      -2.515223   -0.184953   -0.342941
C      -2.843815   -1.658058   -0.780756
C      -1.438484   -2.108581   -0.234170
C      -4.029564   -2.282831   -0.101067
O      -4.946692   -2.826118   -0.659210
H       0.779904    1.601978    0.352998
H      -3.054319    0.135481    0.556450
H      -2.631785    0.587799   -1.105498
H      -2.940357   -1.772951   -1.860628
H      -0.815995   -2.683844   -0.922329
H      -1.505130   -2.654723    0.714230
H      -3.999785   -2.203371    1.013581
