16

C      -0.231466    1.464177    0.125603
C       0.300985    0.060214   -0.025554
O       0.881865   -0.500120    0.881584
C       0.109741   -0.672316   -1.335988
C       1.236798   -1.667272   -1.692559
C      -0.042878   -2.204334   -1.205508
C      -0.582845   -0.086943   -2.510095
O      -1.075262    1.011597   -2.591820
H       0.204482    2.124886   -0.629024
H      -1.310177    1.488460   -0.052817
H       0.001973    1.818402    1.130375
H       1.485643   -1.760942   -2.744016
H       2.072129   -1.642535   -1.003770
H      -0.091002   -2.550288   -0.180408
H      -0.717171   -2.685490   -1.905556
H      -0.618800   -0.787872   -3.378112
