23

C       0.156366    1.432333    0.031215
N      -0.004656   -0.004120   -0.102122
C      -1.264902   -0.566532    0.024079
O      -2.282517    0.108672    0.067048
N      -1.246401   -1.944660    0.087821
C      -2.461183   -2.784809    0.018427
C      -3.244366   -2.521916   -1.282214
C      -1.972172   -4.240287    0.050119
C      -3.348244   -2.511195    1.245212
H       1.010324    1.768207   -0.564290
H      -0.752043    1.905535   -0.341541
H       0.304463    1.752219    1.071824
H       0.776810   -0.570029    0.189505
H      -0.409694   -2.388035   -0.259863
H      -2.622137   -2.736509   -2.157951
H      -4.130651   -3.163152   -1.331359
H      -3.561660   -1.479009   -1.327368
H      -1.396135   -4.441239    0.959241
H      -2.823600   -4.925657    0.026870
H      -1.340792   -4.467154   -0.817674
H      -3.667323   -1.468917    1.257799
H      -4.233744   -3.154288    1.217750
H      -2.799182   -2.720795    2.168565
