18

C      -0.054905    1.606378   -0.059320
C      -0.000089    0.078709    0.036981
C       0.753891   -0.587535   -1.173741
C       1.557550   -1.819522   -0.637910
C       1.599947   -1.481759    0.814008
C       0.778511   -0.476913    1.199465
C       0.987705   -0.418339    2.600537
N       1.867764   -1.312195    3.001682
O       2.263256   -2.009873    1.840670
H       0.953717    2.032773   -0.074358
H      -0.571425    1.921087   -0.972231
H      -0.590897    2.038658    0.791789
H      -1.032610   -0.296707    0.070703
H       0.071245   -0.860514   -1.982158
H       1.460902    0.142507   -1.581358
H       1.028899   -2.765519   -0.809480
H       2.543651   -1.914664   -1.101947
H       0.552218    0.231623    3.347132
