19

C       1.103448    1.246799   -1.067256
C       0.644914   -0.069578   -0.475581
N       1.453164   -0.911016    0.393592
C       2.798743   -0.532492    0.809756
C       0.290336   -0.237145    0.985764
C       0.417663    0.895317    2.001159
O       0.778277    0.418532    3.282868
C      -0.790896   -1.141328    1.342622
N      -1.669917   -1.818169    1.670522
H       1.675153    1.869031   -0.377904
H       1.731176    1.056710   -1.944211
H       0.236038    1.824133   -1.402087
H       0.043408   -0.655114   -1.170282
H       2.996605    0.545998    0.859439
H       2.984058   -0.955527    1.799586
H       3.507038   -0.974320    0.102840
H       1.204947    1.589383    1.707110
H      -0.528297    1.456308    2.024483
H       0.070856   -0.155035    3.600238
