17

O       0.099653    1.416575   -0.177446
C       0.067187    0.019978    0.069716
C      -1.328971   -0.525564    0.094388
C      -2.346215   -0.355666    1.221650
O      -2.898101   -1.679557    0.962268
C      -1.899619   -1.907053   -0.028574
C      -2.056226   -0.959935   -1.199909
C      -3.370856   -0.440834   -1.648147
O      -3.587185   -0.072126   -2.779046
H      -0.299635    1.571745   -1.040601
H       0.671107   -0.540188   -0.661259
H       0.536801   -0.114688    1.050729
H      -1.870501   -0.330467    2.208221
H      -3.094914    0.438307    1.150387
H      -1.459463   -2.895000   -0.102535
H      -1.359315   -1.139281   -2.015178
H      -4.164449   -0.424068   -0.875028
