16

C      -0.239790    1.478677   -0.028904
C       0.031159   -0.022338    0.012836
C       1.221119   -0.485430   -0.879482
C       2.124731   -0.531678    0.394666
C       0.827226   -0.496896    1.264942
C       3.025415   -1.659512    0.554066
N       3.724848   -2.572440    0.677633
H       0.674342    2.059405    0.142073
H      -0.644010    1.777540   -1.001819
H      -0.963875    1.768234    0.739948
H      -0.899678   -0.567977   -0.161060
H       1.070609   -1.482065   -1.298821
H       1.545487    0.189467   -1.674698
H       2.697695    0.392614    0.504857
H       0.846557    0.169132    2.130449
H       0.539414   -1.497523    1.593101
