16

C      -0.330073    1.660790   -0.099134
C      -0.126828    0.165799   -0.055664
O       1.083065   -0.245543   -0.816955
C       1.670968   -0.761735    0.292640
O       2.771394   -1.211194    0.414027
C       0.482908   -0.487745    1.207592
C       0.716651    0.339105    2.472064
N       1.931122    0.125516    3.037732
O      -0.136948    1.076108    2.923411
H       0.567005    2.190241    0.232501
H      -0.565929    1.976975   -1.118994
H      -1.150516    1.937677    0.566524
H      -0.986854   -0.374593   -0.456836
H      -0.023132   -1.412324    1.500331
H       2.631789   -0.434903    2.575302
H       2.162470    0.622355    3.882566
