18

C      -0.679675    0.959436   -0.571550
C      -0.137798   -0.411252   -0.160735
C       0.728919   -0.334437    1.109352
O      -0.074548    0.092575    2.166993
C       0.627049    0.524887    3.321485
C       1.360126   -1.701294    1.394636
O       1.098142   -2.404177    2.334316
C       2.369063   -2.128449    0.393972
N       3.160502   -2.437920   -0.390539
H       0.135081    1.645903   -0.826156
H      -1.327690    0.868972   -1.447722
H      -1.258071    1.402880    0.241873
H      -0.963441   -1.102336    0.043411
H       0.456518   -0.844703   -0.972171
H       1.564910    0.368301    0.928664
H       1.170209   -0.296754    3.801531
H       1.332739    1.332684    3.077147
H      -0.122670    0.908244    4.016200
