14

C      -0.053582    1.549100   -0.233115
C      -0.027446    0.063348    0.034575
N       1.249546   -0.648228   -0.127735
C       0.630427   -0.598874    1.195416
C       1.390437    0.116260    2.283769
F       2.115054    1.147759    1.843695
F       0.540667    0.579914    3.217776
F       2.230338   -0.731272    2.902018
H       0.871149    2.026223    0.088254
H      -0.182623    1.730569   -1.304999
H      -0.892731    2.017621    0.291621
H      -0.919562   -0.462286   -0.306304
H       1.123770   -1.564678   -0.546918
H       0.154604   -1.492933    1.592967
