14

O       0.133318    1.422580    0.191869
C       0.099404    0.052163    0.043075
C       1.310991   -0.701200    0.679390
O       1.035579   -2.096214    0.633134
C       1.544438   -1.480510   -0.551170
C       0.351179   -0.777619   -1.259561
O      -0.933739   -1.445370   -1.078403
C      -1.229341   -0.692543    0.044551
N      -2.279232   -0.580624    0.717479
H      -0.772551    1.751039    0.155704
H       1.980702   -0.320325    1.441555
H       2.447442   -1.891860   -0.985546
H       0.487651   -0.359250   -2.254429
H      -3.022237   -1.193382    0.377328
