14

O       0.005470    0.132021   -0.003779
C      -0.015809    1.339209    0.006541
C       1.193787    2.156767    0.383472
C       2.063204    1.664388    1.475317
O       2.457740    1.553399    0.121365
C      -1.253543    2.119938   -0.356817
C      -2.105183    1.616092   -1.457435
O      -2.495391    1.467914   -0.105814
H       1.147590    3.228731    0.193849
H       2.611826    2.387659    2.076596
H       1.793219    0.727403    1.957944
H      -1.245221    3.189426   -0.148676
H      -2.679195    2.329745   -2.046381
H      -1.802591    0.697603   -1.956007
