15

O      -0.785411    1.377563    0.053571
C      -0.446349    0.053674    0.135384
C      -0.899364   -0.862498    1.241353
C      -1.433715   -1.095327   -0.170587
O      -2.808221   -0.951984   -0.523000
C      -3.668014   -0.074885   -0.008396
N      -3.387584    0.894200    0.760667
C      -0.912276   -2.218647   -0.905025
N      -0.442246   -3.103956   -1.482234
H      -1.674204    1.478661    0.452418
H       0.544513   -0.122088   -0.272749
H      -0.222769   -1.609393    1.641485
H      -1.610677   -0.457161    1.949260
H      -4.666719   -0.331331   -0.370014
H      -4.222373    1.416303    1.011402
