23

C      -0.056936    1.567447    0.470252
C      -0.019582    0.102463    0.002448
C       0.956713   -0.710677    0.862555
C      -1.429759   -0.479074   -0.054862
C      -2.200878   -0.870699    1.194846
C      -1.831094   -1.931773    0.187414
C      -2.867932   -2.326863   -0.862791
C      -3.123154   -1.031145   -1.603593
C      -2.329339   -0.048077   -1.175595
H       0.940821    2.017231    0.432158
H      -0.720562    2.176092   -0.151841
H      -0.417830    1.633871    1.502719
H       0.367754    0.090363   -1.026521
H       1.058163   -1.737600    0.500205
H       1.950471   -0.251766    0.842979
H       0.638602   -0.749549    1.910498
H      -1.665870   -0.894402    2.139335
H      -3.236030   -0.553210    1.274194
H      -1.096964   -2.667930    0.492351
H      -2.485268   -3.104737   -1.538001
H      -3.782827   -2.734923   -0.412891
H      -3.881706   -0.936040   -2.372553
H      -2.325336    0.965013   -1.563354
