17

O      -0.111581    1.325236   -0.134186
C      -0.228487   -0.057805   -0.138358
C      -0.468625   -0.835284    1.123087
N      -1.279081    0.049680    1.993079
C      -2.437078   -0.063851    1.034892
C      -1.541144   -0.794530    0.034023
O      -2.000949   -1.799365   -0.806330
C      -2.209978   -1.454089   -2.104789
N      -2.686301   -2.305001   -2.901921
H      -0.316506    1.595042    0.775280
H       0.445365   -0.537558   -0.843664
H       0.169031   -1.620575    1.509959
H      -1.493422   -0.388859    2.881344
H      -3.227864   -0.720552    1.407044
H      -2.861748    0.898098    0.730357
H      -1.919858   -0.419954   -2.325614
H      -2.774490   -1.897922   -3.830895
