21

C      -0.127756    1.662100    0.085419
C      -0.016132    0.145982    0.063137
C      -1.233865   -0.540267   -0.548352
C      -1.408716   -0.208941   -2.017012
O      -2.431731    0.176432   -2.521929
C       1.338868   -0.489254   -0.175884
C       0.686636   -0.599000    1.180574
C       1.283007    0.076180    2.388138
O       2.291498   -0.785004    2.903079
H       0.781024    2.137900    0.460312
H      -0.306803    2.053162   -0.922731
H      -0.965050    1.989167    0.712975
H      -1.110352   -1.630223   -0.479794
H      -2.157318   -0.274258   -0.022823
H      -0.487849   -0.354866   -2.628731
H       1.405985   -1.380532   -0.790854
H       2.194228    0.172849   -0.265474
H       0.265803   -1.571477    1.423889
H       1.704159    1.055875    2.117984
H       0.498236    0.255307    3.141063
H       2.621726   -0.400933    3.720851
