22

C      -0.110859    1.560913   -0.026812
C       0.036786    0.039744    0.002960
C       0.936048   -0.560137   -1.077687
N       2.327888   -0.693428   -0.559167
C       2.265209   -0.197751    0.836717
C       0.815820   -0.573182    1.197598
C       0.836741   -2.066906    0.809315
C       1.428943   -1.881253   -0.590132
C       1.806638   -3.041817   -1.465575
H       0.855462    2.072658   -0.009867
H      -0.630878    1.879211   -0.936723
H      -0.696039    1.914892    0.828815
H      -0.962850   -0.410636   -0.052434
H       0.827509   -0.315024   -2.128707
H       3.008250   -0.716970    1.450398
H       2.478899    0.873639    0.869606
H       0.460407   -0.321603    2.196433
H       1.474291   -2.674537    1.460942
H      -0.161063   -2.517484    0.782147
H       0.931518   -3.659058   -1.698540
H       2.241131   -2.692028   -2.405645
H       2.546246   -3.682242   -0.971440
