23

C       2.295293    1.690805    0.068449
C       0.905895    1.339221    0.622321
C      -0.057105    0.944440   -0.501054
O      -0.164306    2.040599   -1.401414
C       0.980249    0.237507    1.670419
O       1.433392   -1.002460    1.169107
C       1.363151    0.562609    3.095959
C      -0.038567    0.077654    2.766452
C      -1.245609    0.969922    2.951918
H       2.753216    0.827828   -0.430619
H       2.216194    2.488604   -0.672143
H       2.967088    2.018912    0.868031
H       0.498403    2.239026    1.097698
H       0.325153    0.044466   -1.003650
H      -1.037860    0.690294   -0.071017
H      -0.692693    1.759093   -2.153328
H       2.377569   -0.921179    0.995371
H       2.032770   -0.122551    3.604442
H       1.486367    1.607289    3.366648
H      -0.211802   -0.966350    3.012621
H      -1.031345    2.011926    2.697517
H      -2.088439    0.642196    2.333513
H      -1.575806    0.952166    3.996502
