16

C      -0.051628    1.448849    0.009006
N       0.002310    0.003194   -0.000927
C      -1.129851   -0.802422    0.002950
N      -2.306755   -0.318835    0.013657
C      -0.564712   -2.221633   -0.007931
N       0.893832   -2.090437   -0.015987
C       1.126058   -0.824765   -0.011240
C       2.434515   -0.257614   -0.016486
C       3.532583    0.231368   -0.020804
H       0.964773    1.843155    0.000200
H      -0.596417    1.813109   -0.867293
H      -0.576838    1.802415    0.901577
H      -3.001390   -1.064241    0.014799
H      -0.891599   -2.789092    0.871767
H      -0.902013   -2.779509   -0.889854
H       4.510018    0.648317   -0.024905
