17

C       0.008994    1.413428    0.042233
N      -0.034352   -0.038417    0.041167
C      -1.147974   -0.607484   -0.004596
C      -2.652512   -0.261343   -0.049916
O      -3.088310   -0.130403   -1.395513
C      -2.693169   -1.343084   -2.050259
C      -2.455994   -2.349443   -0.931071
C      -2.850661   -1.742996    0.340282
N      -1.373155   -2.042237    0.077346
H       0.617742    1.749954   -0.803857
H      -0.973382    1.901854   -0.021735
H       0.513955    1.756924    0.951914
H      -3.062176    0.549755    0.548762
H      -3.503063   -1.663346   -2.713598
H      -1.787208   -1.179443   -2.648602
H      -2.556963   -3.410959   -1.121887
H      -3.389902   -2.181421    1.168193
