21

C      -0.074884    1.547016   -0.058146
C       0.041389    0.029066    0.023107
O       0.811136   -0.454842   -1.090822
C       1.872022   -1.276692   -0.529570
C       2.254602   -0.478417    0.722714
C       0.802301   -0.549737    1.277486
C       0.493691    0.094204    2.616940
C       0.565087   -2.055060    1.170511
C       1.215456   -2.502062    0.092211
H       0.894862    2.037120    0.068950
H      -0.467173    1.829754   -1.039220
H      -0.762024    1.927426    0.704483
H      -0.965852   -0.408487   -0.025574
H       2.616848   -1.434612   -1.307841
H       2.970886   -0.987755    1.369588
H       2.601344    0.532878    0.493442
H       0.752325    1.157109    2.625743
H      -0.571424    0.008691    2.862236
H       1.056883   -0.392866    3.419746
H      -0.110503   -2.603617    1.816553
H       1.186467   -3.491829   -0.344505
