21

C      -1.227443    0.819905    0.106322
C      -0.261999   -0.347268   -0.007315
C       0.973855   -0.225251   -0.961429
O       1.424143    1.081107   -1.199778
C       1.803508   -1.018359    0.087506
C       0.724522   -0.717363    1.175388
C       1.076768    0.457782    2.062769
C       0.695487    0.361508    3.523188
O       1.630691    1.451386    1.624921
H      -0.704766    1.757504    0.307810
H      -1.775802    0.946449   -0.832863
H      -1.963168    0.654181    0.901570
H      -0.809830   -1.262222   -0.257295
H       0.855001   -0.692454   -1.942809
H       1.656618    1.463863   -0.337331
H       1.859736   -2.087296   -0.131624
H       2.807581   -0.632016    0.275681
H       0.405071   -1.564261    1.786762
H      -0.379323    0.167354    3.617622
H       1.208407   -0.489005    3.987426
H       0.955908    1.282158    4.046308
