23

C      -0.065187    1.501773   -0.238680
C       0.013020    0.011228    0.099103
O       0.706508   -0.201704    1.331310
C      -1.357391   -0.635458    0.112899
C      -1.951623   -1.275151   -1.121980
C      -1.544830   -2.135695    0.051721
C      -0.347647   -3.060833   -0.073986
C      -2.660314   -2.696182    0.906267
O      -3.170511   -3.868473    0.281355
H       0.933546    1.946479   -0.231036
H      -0.515138    1.658437   -1.224079
H      -0.681945    2.033278    0.497174
H       0.641344   -0.484515   -0.648224
H       0.182474    0.202312    2.031849
H      -2.066602   -0.103060    0.748278
H      -3.007460   -1.131821   -1.325299
H      -1.332091   -1.319820   -2.012621
H       0.363033   -2.714461   -0.827967
H       0.190033   -3.135058    0.877309
H      -0.685191   -4.059684   -0.363362
H      -2.270140   -2.927176    1.911203
H      -3.452940   -1.939914    1.025660
H      -3.750403   -4.313068    0.906242
