13

O      -0.102795    1.355880    0.010741
C       0.010827    0.013131    0.003117
C       1.188140   -0.666433   -0.006910
F       2.309957    0.078402   -0.009257
C       1.278021   -2.118806   -0.014893
O       2.338060   -2.733557   -0.024164
C      -0.049741   -2.747929   -0.010992
C      -1.195320   -2.031027   -0.000939
N      -1.176519   -0.658003    0.006148
H       0.793332    1.718565    0.007691
H      -0.084467   -3.829921   -0.016515
H      -2.181291   -2.477893    0.002113
H      -2.025672   -0.116492    0.013704
