22

C       0.795053   -0.693827    1.403756
C       0.211275   -0.189760    0.079576
C      -1.245617   -0.646916   -0.101410
N      -1.955590   -0.320792   -1.372226
C      -1.524731    0.781946   -2.210725
C      -2.503441    1.018853   -3.360549
C      -1.859296   -1.697996   -1.896475
C      -1.370259   -2.125924   -0.506080
O      -1.146217   -3.170503    0.029791
H       1.838920   -0.385938    1.513373
H       0.236078   -0.292881    2.256289
H       0.750316   -1.785061    1.461422
H       0.247458    0.905603    0.045736
H       0.822242   -0.546921   -0.758666
H      -1.825711   -0.365060    0.788374
H      -1.474220    1.680548   -1.584946
H      -0.509855    0.625711   -2.624699
H      -2.183342    1.869832   -3.969543
H      -2.561686    0.144088   -4.016974
H      -3.507195    1.218765   -2.975115
H      -2.795441   -2.140902   -2.253676
H      -1.082003   -1.852566   -2.665641
