19

C       0.215685    1.475060    0.016013
N       0.008546    0.031831   -0.019927
C      -0.186786   -0.671318    1.149998
O      -0.204525   -0.188321    2.257327
C       0.009058   -0.629857   -1.240256
N       0.184829   -0.017042   -2.335174
C       0.170129   -0.772721   -3.537963
C      -0.397075   -0.102997   -4.769758
C       1.086516   -0.318769   -4.652291
H       1.182854    1.724089   -0.427189
H      -0.563009    1.978258   -0.562224
H       0.179847    1.784256    1.059215
H      -0.328919   -1.751431    0.960204
H      -0.155255   -1.710778   -1.151412
H       0.006149   -1.848539   -3.443029
H      -0.961195   -0.716256   -5.463363
H      -0.771595    0.905046   -4.638347
H       1.706177    0.544684   -4.442161
H       1.553814   -1.082037   -5.264223
