17

C      -0.876680    1.206066    0.430535
C       0.042714    0.061366    0.082245
N       1.470552    0.332043   -0.022744
C       1.015976   -0.590441    1.031296
C       1.201093   -0.225644    2.464003
O       1.271198   -1.039449    3.347660
O       1.266659    1.127609    2.663915
C       1.458405    1.579532    3.946370
N       1.415172    2.820879    4.142189
H      -0.398628    1.901461    1.119653
H      -1.143526    1.751803   -0.480699
H      -1.802711    0.833377    0.880949
H      -0.377388   -0.647869   -0.631772
H       1.901126   -0.197939   -0.775495
H       1.168116   -1.657789    0.899078
H       1.633638    0.773818    4.659035
H       1.584233    3.019258    5.127444
