19

C      -0.353730    1.316267    0.249611
C       0.111206   -0.105225   -0.072156
C       0.843800   -0.796862    1.097482
C       1.198635   -2.267812    0.761202
N       1.839076   -2.972321    1.853368
C       1.109659   -3.512984    2.868393
O      -0.102828   -3.514733    2.913558
C       2.061645   -0.073238    1.474716
N       3.043946    0.468581    1.755145
H       0.492503    1.964031    0.497772
H      -0.873305    1.754604   -0.607009
H      -1.044101    1.323491    1.099666
H      -0.750008   -0.731519   -0.331453
H       0.770569   -0.096077   -0.948220
H       0.183405   -0.816330    1.972893
H       0.269459   -2.792326    0.527783
H       1.851538   -2.303038   -0.115283
H       2.838895   -2.902599    1.959672
H       1.749583   -3.968979    3.647718
