20

C       0.165100    1.716296    0.038814
C      -0.163499    0.220557    0.105776
C       0.588421   -0.476865    1.241360
C       0.512904   -2.015943    1.434132
C      -0.149367   -2.893483    0.390161
O       0.188145   -4.251960    0.594324
O       1.978703   -2.099576    1.290279
C       2.071268   -0.741302    1.053432
N       3.066304   -0.032830    0.769559
H       1.239383    1.868454   -0.094706
H      -0.360500    2.193265   -0.793589
H      -0.134581    2.226118    0.961134
H      -1.241208    0.079467    0.255073
H       0.085370   -0.250560   -0.851303
H       0.400942    0.051326    2.181988
H       0.230497   -2.348850    2.436961
H      -1.238670   -2.820149    0.479073
H       0.130710   -2.556019   -0.618537
H       1.150832   -4.303928    0.569691
H       3.920383   -0.590561    0.713768
