18

O       0.222732    1.267491   -0.448541
C       0.091096   -0.098312   -0.064638
C      -1.375682   -0.534583   -0.150127
O      -1.901981   -0.197676   -1.418057
C      -1.516072   -2.027481    0.035891
N      -1.674405   -2.512850    1.399790
C      -2.795507   -2.695442    0.450475
C      -4.040527   -1.932523    0.748661
O      -5.134160   -2.283275    0.384826
H      -0.118584    1.813440    0.268100
H       0.685644   -0.665805   -0.788889
H       0.493159   -0.285321    0.939724
H      -1.928918   -0.024379    0.656430
H      -1.492764    0.646751   -1.651993
H      -0.911938   -2.613382   -0.656569
H      -1.191843   -3.395584    1.540380
H      -2.979642   -3.681823    0.032401
H      -3.888123   -1.013210    1.353421
