21

C      -0.071997    1.583555    0.108148
C      -0.017381    0.048192    0.057357
C       0.724778   -0.504499    1.285580
C      -1.446090   -0.523987    0.019596
O      -2.129460   -0.119313    1.198988
C       0.696564   -0.437513   -1.242136
O       0.001772   -0.048391   -2.428144
C       2.100960   -0.022737   -1.305503
C       3.239459    0.354740   -1.392540
H       0.934040    2.011765    0.143493
H      -0.590438    1.990844   -0.767054
H      -0.621946    1.907646    0.993772
H       0.166278   -0.268505    2.193822
H       0.825680   -1.594828    1.228068
H       1.727509   -0.077314    1.367210
H      -1.956802   -0.163614   -0.882113
H      -1.393337   -1.624075   -0.043057
H      -3.047006   -0.393953    1.120841
H       0.659059   -1.535002   -1.247362
H       0.255925    0.858478   -2.628672
H       4.250642    0.671302   -1.468271
