14

O      -0.050710    0.009645    0.544972
C      -0.085369    1.115304    0.096156
C      -1.348600    1.949609   -0.029252
C      -1.214351    3.101578   -1.020241
O       0.028144    3.769668   -0.777175
C       1.108940    2.941113   -1.001999
O       1.096768    1.724379   -0.252043
C       1.252274    2.593943   -2.445184
N       1.365886    2.353134   -3.568728
H      -2.172422    1.278845   -0.282128
H      -1.547085    2.347138    0.973015
H      -1.249702    2.747691   -2.059083
H      -1.994420    3.851507   -0.884340
H       2.002377    3.480829   -0.679096
