18

O      -0.002132    1.473904   -0.027440
C       0.011925    0.074287    0.014144
C       0.661427   -0.516250   -1.251205
C      -0.085639   -0.093444   -2.518926
C       0.610948   -0.609820   -3.793007
C      -0.102401   -0.236893   -5.012626
N      -0.680040    0.062432   -5.967541
C       0.734613   -0.409800    1.255625
O       1.214063    0.360772    2.051070
H       0.458619    1.766223    0.775224
H      -1.020742   -0.318156    0.083101
H       1.702163   -0.171162   -1.297612
H       0.682919   -1.611397   -1.170727
H      -1.113552   -0.472459   -2.490923
H      -0.149541    0.997287   -2.551718
H       1.631928   -0.214755   -3.853408
H       0.699450   -1.702618   -3.765912
H       0.801122   -1.508593    1.392072
