18

O       0.006491    1.359061    0.377472
C       0.030162    0.014246   -0.091717
C      -1.378119   -0.509205   -0.084185
C      -1.978093   -1.074088    1.189251
C      -1.730930   -1.988001    0.016276
C      -2.884688   -2.257878   -0.950986
C      -3.224002   -0.881118   -1.487290
C      -2.387561    0.054328   -1.033270
H       0.881926    1.735538    0.246743
H       0.441490   -0.034769   -1.112720
H       0.663157   -0.620153    0.549733
H      -1.316601   -1.184403    2.043149
H      -2.996709   -0.794997    1.438209
H      -0.949996   -2.733635    0.116739
H      -2.583019   -2.939071   -1.758536
H      -3.741570   -2.732560   -0.455053
H      -4.068517   -0.703686   -2.143933
H      -2.418452    1.110778   -1.272094
