21

C      -0.044611    1.591393   -0.016023
C      -0.072729    0.068996   -0.017127
C       1.133604   -0.603391   -0.716342
O       1.927759   -0.300900    0.485337
C       0.655599   -0.616205    1.180779
C       0.585889   -0.145257    2.606643
C       0.554573   -2.137022    0.899922
C      -0.408628   -2.668402   -0.132020
C       0.928421   -2.123994   -0.570660
H       0.951515    1.964064    0.230665
H      -0.325401    1.979358   -1.001305
H      -0.758706    1.996620    0.709286
H      -1.075053   -0.281242   -0.269903
H       1.573756   -0.220939   -1.637851
H       0.729057    0.935830    2.676989
H      -0.385962   -0.398752    3.042611
H       1.363295   -0.632904    3.204288
H       1.014699   -2.812885    1.611799
H      -0.497413   -3.750930   -0.164881
H      -1.337844   -2.162907   -0.364107
H       1.676715   -2.788552   -0.985299
