15

O       0.124563    1.454560    0.102440
C       0.102778    0.031483    0.015294
C       0.695393   -0.450709   -1.235067
C       1.171846   -0.827694   -2.272475
C       0.869161   -0.458353    1.250364
C       2.249077    0.178524    1.392385
O       2.899720    0.089107    2.401838
C       0.047982   -0.283761    2.532802
O      -1.151780   -0.220562    2.544415
H      -0.316962    1.812410   -0.674644
H      -0.927427   -0.341741    0.100263
H       1.589598   -1.164640   -3.189497
H       1.045794   -1.540843    1.164352
H       2.615894    0.724269    0.502047
H       0.657870   -0.243665    3.455882
