21

C       0.173180    1.497916    0.055014
C       0.014525   -0.015337    0.000522
C      -1.442003   -0.427886   -0.185556
O      -1.876050    0.019842   -1.461598
C       0.953061   -0.794293   -0.988318
C       1.466034   -1.684422    0.176266
C       2.681425   -1.111099    0.919343
O       1.842320   -0.240559    1.717550
C       0.640962   -0.824927    1.174522
H       1.210214    1.767255    0.267453
H      -0.127717    1.945367   -0.896238
H      -0.451918    1.931455    0.844779
H      -1.532860   -1.524407   -0.102739
H      -2.049717    0.013360    0.621689
H      -2.787995   -0.258145   -1.585667
H       0.409600   -1.322496   -1.773761
H       1.728912   -0.184868   -1.460360
H       1.387629   -2.765748    0.074974
H       3.214761   -1.831516    1.553397
H       3.410617   -0.553062    0.318319
H      -0.023580   -1.200898    1.960575
