23

C      -0.150198    1.597923    0.025611
C       0.013884    0.079837   -0.026582
C       0.874678   -0.446984   -1.227084
C       1.980569   -1.279155   -0.531667
C       2.881080   -0.294484    0.227351
O       2.041582    0.188212    1.297007
C       0.792671   -0.511581    1.171764
C       1.232507   -1.903129    0.676457
C       0.153366   -2.941799    0.382731
H       0.821255    2.087790    0.131872
H      -0.630293    1.971483   -0.884949
H      -0.770021    1.900584    0.876938
H      -0.982666   -0.375683   -0.055889
H       0.282087   -1.057119   -1.914341
H       1.302083    0.372908   -1.813399
H       2.524098   -1.966174   -1.183023
H       3.769868   -0.780258    0.652694
H       3.212282    0.549156   -0.391134
H       0.279883   -0.458174    2.134519
H       1.945978   -2.326658    1.392687
H      -0.575066   -2.604363   -0.358726
H       0.604682   -3.864230    0.002238
H      -0.396997   -3.199145    1.294302
