18

C       0.098981    1.240074   -0.560509
C      -0.252616    0.048091    0.301566
C       0.658180   -1.125845    0.417233
N       0.434215   -0.245486    1.563822
C       1.537820    0.597145    2.008268
C       2.212769    0.061890    3.280003
N       1.469148   -0.841810    3.964346
O       3.306627    0.462856    3.628096
H       1.178111    1.370658   -0.670641
H      -0.324674    1.110399   -1.561739
H      -0.315631    2.164839   -0.144498
H      -1.322796   -0.146198    0.362675
H       0.266279   -2.135825    0.502948
H       1.621518   -1.055247   -0.086587
H       2.336048    0.737060    1.267789
H       1.148342    1.592333    2.255395
H       0.576135   -1.121671    3.591879
H       1.827394   -1.226170    4.821698
