25

C      -0.033546    1.413056    0.923836
C      -0.019443   -0.032420    0.396437
C       0.635810   -0.937158    1.451646
C      -1.444424   -0.492065   -0.032684
C      -1.844391    0.205763   -1.340721
O      -3.265072    0.221776   -1.442303
C      -1.571835   -2.022809   -0.146775
C      -2.952152   -2.551217   -0.528323
O      -2.892758   -3.969813   -0.405296
H       0.984106    1.760367    1.130032
H      -0.484917    2.119746    0.222336
H      -0.599162    1.472397    1.861306
H       0.618411   -0.062090   -0.500493
H       0.010551   -1.015576    2.349222
H       0.820874   -1.948187    1.082187
H       1.599152   -0.517222    1.759461
H      -2.152762   -0.144756    0.733707
H      -1.454693    1.232462   -1.365043
H      -1.392106   -0.332618   -2.190323
H      -3.500331    0.604100   -2.292823
H      -0.839842   -2.403830   -0.872276
H      -1.322275   -2.485845    0.812333
H      -3.713774   -2.124095    0.142549
H      -3.223492   -2.251065   -1.547669
H      -3.741566   -4.325575   -0.683097
