17

O      -0.020032    1.392189   -0.332985
C      -0.037338    0.025986    0.063004
C      -1.492687   -0.410424    0.105887
N      -2.080215   -0.256822   -1.213925
C      -3.409390   -0.579301   -1.397063
N      -4.127181   -0.065814   -2.401437
N      -5.312559   -0.666656   -2.257328
N      -5.433320   -1.511307   -1.252945
C      -4.229081   -1.479313   -0.677201
H       0.885216    1.640741   -0.539188
H       0.508711   -0.601665   -0.655851
H       0.414386   -0.110652    1.056709
H      -1.533469   -1.463714    0.406980
H      -2.023040    0.174967    0.875277
H      -1.822138    0.622265   -1.642996
H      -6.075800   -0.473555   -2.883396
H      -4.013205   -2.078325    0.191602
