16

C      -0.040106    1.554210    0.055623
C       0.007051    0.061175    0.070037
C      -0.831661   -0.878454    0.897901
C       0.690748   -0.952958    0.996835
C       1.182012   -1.646975   -0.259553
C       1.470318   -2.685453   -1.111928
N       1.040684   -2.305658   -2.364214
N       0.442179   -1.140499   -2.324983
N       0.599521   -0.719891   -1.053584
H       0.927839    1.975766   -0.230010
H      -0.793984    1.913248   -0.652846
H      -0.306592    1.930616    1.047261
H      -1.337711   -0.419530    1.743937
H      -1.377061   -1.688589    0.424924
H       1.242185   -0.759339    1.905239
H       1.962437   -3.630850   -0.958923
