21

C       0.277608    1.443788    0.242610
C      -0.001822   -0.054630    0.013542
N       0.480531   -0.785051    1.194944
C      -1.468872   -0.247223   -0.142874
N      -2.609085   -0.425412   -0.222910
C       0.706700   -0.554078   -1.268228
C       0.157856    0.006798   -2.569659
C       2.193676   -0.794253   -1.188437
C       1.247846   -1.963999   -1.317423
H       1.351503    1.584295    0.384549
H      -0.054174    2.045661   -0.604364
H      -0.248423    1.801465    1.132968
H       0.147803   -0.322908    2.035902
H       0.091097   -1.722372    1.212242
H       0.256453    1.096229   -2.623425
H       0.707207   -0.410135   -3.418231
H      -0.899806   -0.243001   -2.701233
H       2.795370   -0.509543   -2.044883
H       2.672171   -0.667247   -0.224868
H       1.149107   -2.610134   -0.453887
H       1.182784   -2.484385   -2.266776
