15

C      -0.047038    1.520260    0.112036
C      -0.012209    0.035896   -0.040193
C       0.042248   -0.789682   -1.168472
C       0.071850   -0.509920   -2.572926
O       0.120547   -1.398185   -3.420654
C       0.063247   -2.121190   -0.634788
O       0.112779   -3.235629   -1.358763
N       0.026434   -2.135719    0.683601
N      -0.018916   -0.803303    1.005200
H       0.882244    1.977547   -0.243326
H      -0.869504    1.956883   -0.462473
H      -0.181416    1.803890    1.159608
H       0.048503    0.553016   -2.886173
H       0.130893   -2.938466   -2.292449
H      -0.053675   -0.553753    1.979882
