19

C       0.018678    1.371801   -0.044258
O      -0.043469   -0.038164    0.038969
C      -1.327911   -0.584943    0.056416
C      -2.238301   -0.300985   -1.193987
O      -3.214278   -1.341884   -1.147165
C      -2.885103   -2.146559    0.029318
C      -1.352597   -2.130871   -0.003917
C      -3.165880   -1.289964    1.254529
C      -2.224686   -0.339892    1.266864
H       1.076535    1.641996   -0.012868
H      -0.412365    1.751210   -0.981244
H      -0.492225    1.862000    0.796446
H      -2.729642    0.677740   -1.156427
H      -1.647302   -0.374780   -2.116430
H      -3.408555   -3.095712   -0.063189
H      -0.936810   -2.535923   -0.929866
H      -0.880495   -2.583618    0.868144
H      -4.035027   -1.374140    1.894090
H      -2.153170    0.516775    1.924672
