21

C      -0.119295    1.456905   -0.216617
O      -0.081717    0.143575    0.297314
C      -1.298325   -0.555937    0.152241
C      -1.487018   -1.179674   -1.259726
C      -0.895417   -2.526654   -0.732714
C       0.560196   -2.707571   -1.079304
O       1.047078   -3.751019   -1.438870
C      -1.153597   -1.989794    0.726673
C      -0.162778   -2.258720    1.849628
H       0.859203    1.905199   -0.029961
H      -0.315656    1.476302   -1.298652
H      -0.891558    2.060718    0.284196
H      -2.127328    0.053349    0.541010
H      -2.537822   -1.282886   -1.539759
H      -0.951852   -0.689823   -2.077575
H      -1.425807   -3.442423   -1.000136
H       1.177444   -1.787447   -0.984112
H      -2.149729   -2.336020    1.021047
H       0.818771   -1.832830    1.632282
H      -0.514354   -1.816487    2.787662
H      -0.046127   -3.335620    2.009235
