22

C       0.264379    1.496865    0.064308
C      -0.153017    0.015529   -0.019103
C      -1.695696   -0.063699   -0.032682
C       0.439760   -0.573138   -1.319532
C       0.229782   -2.070005   -1.544355
C       1.056229   -2.927551   -0.599349
O       0.624909   -2.941981    0.763462
C       0.538488   -1.800126    1.501896
N       0.278657   -0.598103    1.236536
H       1.354132    1.585923    0.113116
H      -0.088518    2.055145   -0.809026
H      -0.149694    1.954468    0.966158
H      -2.100179    0.474992   -0.896046
H      -2.048130   -1.097850   -0.073635
H      -2.097403    0.388142    0.877774
H       0.012765   -0.014288   -2.160900
H       1.518831   -0.367531   -1.332095
H      -0.827138   -2.347866   -1.465020
H       0.541854   -2.325817   -2.564803
H       1.021518   -3.978528   -0.898555
H       2.106374   -2.601890   -0.628749
H       0.704939   -2.073912    2.546064
