18

O       0.313076    0.655329    0.869443
C      -0.199688    0.394137   -0.430084
C      -1.517010   -0.367395   -0.367831
C      -2.113028   -0.946647   -1.701368
C      -2.042397   -2.350043   -1.092321
N      -0.658162   -2.623068   -0.743772
C      -1.453087   -1.796440    0.196946
C      -1.769092   -2.310831    1.532757
O      -1.599675   -3.467219    1.859652
H       0.719201   -0.156024    1.189794
H      -0.356700    1.370195   -0.902612
H       0.520018   -0.163984   -1.042683
H      -2.261490    0.222000    0.175570
H      -3.131805   -0.606715   -1.893238
H      -1.506274   -0.813581   -2.601030
H      -2.765971   -3.152244   -1.177580
H      -0.619845   -3.551514   -0.316983
H      -2.200626   -1.566105    2.234499
