21

C       0.457368    1.500360    0.111837
C       0.067140    0.033905   -0.022726
C       0.145527   -0.453295   -1.482758
C       0.365769   -1.968299   -1.703782
O       1.743126   -2.289732   -1.773377
C      -0.319161   -2.889490   -0.676359
O       0.441383   -2.992430    0.523750
C       0.358993   -1.881724    1.378766
O       0.920971   -0.714312    0.853493
H       1.507304    1.634737   -0.165967
H      -0.154823    2.123578   -0.547169
H       0.324981    1.843638    1.141234
H      -0.966429   -0.092827    0.336213
H      -0.778654   -0.140447   -1.985547
H       0.971286    0.048526   -1.998351
H      -0.045798   -2.216454   -2.690099
H       2.042732   -2.369605   -0.858827
H      -1.347042   -2.557832   -0.461300
H      -0.359743   -3.905501   -1.077210
H      -0.694937   -1.701058    1.657100
H       0.943760   -2.148385    2.262350
