17

O      -0.078629    1.378110   -0.099124
C       0.056847    0.003293   -0.056290
C       0.922317   -0.832449   -1.002677
C      -0.071497   -2.019734   -0.769125
O      -0.449660   -2.819574   -1.845053
C       0.399978   -2.870319    0.413192
O       0.494111   -1.947174    1.499883
C      -0.301243   -0.827639    1.161220
C      -1.074627   -1.019320   -0.103235
H       0.617872    1.768404    0.441082
H       0.834480   -0.456351   -2.027304
H       1.977457   -0.991942   -0.754709
H      -0.709760   -2.248039   -2.574582
H      -0.329049   -3.664305    0.629258
H       1.383458   -3.319816    0.246574
H      -0.731690   -0.317050    2.014899
H      -2.145017   -0.941544   -0.241666
