15

C      -0.020141   -1.240793   -0.005154
C       0.001387   -0.039122    0.037966
C       0.013435    1.411567    0.093482
C      -0.261238    2.149710    1.427067
C       0.813220    1.558459    2.376980
C       1.830594    2.207575    1.440591
C       0.830686    3.169486    0.923566
N       1.353240    2.111692    0.011979
H      -0.034445   -2.301889   -0.048852
H      -0.596525    1.824552   -0.715999
H      -1.273368    2.353681    1.769534
H       0.808122    2.064703    3.345475
H       0.827086    0.473819    2.514220
H       2.898540    2.324779    1.565979
H       0.844039    4.227690    0.700977
