19

C       0.353179    1.519669    0.041085
O      -0.258384    0.331890   -0.414678
C       0.580797   -0.448547   -1.205739
C       1.623351   -1.353391   -0.510923
O       1.090205   -2.524224   -1.162517
C      -0.045821   -1.786536   -1.697218
C      -1.320504   -2.171083   -1.121349
C      -2.378929   -2.511464   -0.659417
C      -3.654550   -2.917355   -0.090475
H       1.219412    1.315609    0.688261
H       0.689073    2.149582   -0.797476
H      -0.395327    2.066269    0.618706
H       1.004421    0.141897   -2.031177
H       2.678587   -1.192725   -0.757540
H       1.497225   -1.392975    0.579188
H      -0.079072   -1.885673   -2.789241
H      -4.409737   -3.069715   -0.869389
H      -3.554960   -3.857695    0.462966
H      -4.037839   -2.162183    0.604503
