13

C      -0.024772    1.365560    0.030880
O       0.019116   -0.067480   -0.029095
C       0.622191   -0.580364   -1.084912
N       1.168531    0.127568   -2.055015
O       1.663928   -0.853570   -2.916015
C       1.357062   -2.029773   -2.362510
C       1.747621   -3.294200   -3.035963
O       2.341057   -3.338999   -4.080874
N       0.715597   -1.938581   -1.234177
H       0.987571    1.779197    0.048406
H      -0.561903    1.768600   -0.832419
H      -0.551202    1.604213    0.954094
H       1.431095   -4.189669   -2.468474
