14

N      -0.147574    1.329334   -0.019463
C       0.129644    0.004202   -0.032048
O       1.233442   -0.487679    0.009531
O      -1.046053   -0.692817   -0.118203
C      -1.056341   -2.058470   -0.173654
C      -2.172477   -2.860557   -0.257346
C      -1.634061   -4.164890   -0.285668
N      -0.306521   -4.169218   -0.225014
N       0.031417   -2.861896   -0.156654
H       0.613171    1.964456    0.142555
H      -1.095293    1.654700    0.049823
H      -3.200425   -2.542717   -0.292176
H      -2.168057   -5.101680   -0.348210
H       0.987522   -2.552171   -0.098763
