13

O       0.585746    0.031295    0.077103
C       0.658374    1.193502    0.325292
O       0.569185    2.133178   -0.653061
C       0.796612    3.493834   -0.394876
C       1.299605    3.983846    0.996429
O       2.616844    3.357131    0.696816
C       2.260345    3.979400   -0.609230
C       1.901844    5.211461    0.254108
O       2.110737    6.369187    0.381635
H       0.771338    1.618730    1.333336
H       0.000875    4.071331   -0.871895
H       0.889791    3.874474    1.997007
H       2.928615    3.820438   -1.451061
