16

C       0.003489    1.446181   -0.213226
C       0.117901   -0.034611    0.173969
C       0.715130   -0.179177    1.511054
N       1.195908   -0.276693    2.556319
N      -1.222065   -0.637675    0.193737
C      -1.764418   -1.084923   -1.076179
C      -1.351982   -2.084133   -0.034134
C      -0.192742   -2.902916   -0.298034
N       0.738526   -3.558054   -0.501188
H       0.987903    1.918765   -0.194904
H      -0.406383    1.531983   -1.223025
H      -0.656302    1.969134    0.482106
H       0.787951   -0.544976   -0.536863
H      -2.819838   -0.889985   -1.238528
H      -1.134658   -1.023908   -1.961957
H      -2.106058   -2.566471    0.580156
