16

C      -0.149590    1.531407    0.135550
C       0.092322    0.062592    0.061752
O      -0.791543   -0.850832    0.699033
C       0.607465   -0.947604    0.987016
C       1.310159   -1.713627   -0.183607
N       0.285231   -2.098967   -1.164601
C       0.796823   -0.695948   -1.152647
C       1.428232   -0.082294   -2.260115
C       1.947178    0.472471   -3.195324
H       0.741154    2.083111   -0.179265
H      -0.974174    1.818824   -0.525940
H      -0.407794    1.822174    1.156990
H       0.925314   -0.891511    2.020867
H       2.289700   -2.171322   -0.148216
H       0.769455   -2.567768   -1.931804
H       2.408449    0.955313   -4.020819
