21

C      -0.079953    1.452709    0.215493
C       1.304554    2.032039   -0.031585
C       2.313870    0.905472    0.120712
C       1.546998   -0.363255    0.460969
C       0.080759   -0.082681    0.023184
C      -0.177486   -0.506992   -1.404237
C       0.481810   -0.060500   -2.470713
C       1.604949    0.940289   -2.510675
C       2.114437    1.570980   -1.222062
H      -0.375142    1.675444    1.248668
H      -0.854109    1.861531   -0.440866
H       1.509923    3.023355    0.360004
H       3.261559    1.068220    0.624321
H       1.944927   -1.262687   -0.018547
H       1.593785   -0.522237    1.545743
H      -0.616461   -0.619688    0.671580
H      -0.968937   -1.236799   -1.557881
H       0.200559   -0.444847   -3.450060
H       2.461202    0.466966   -3.016840
H       1.307975    1.754224   -3.190912
H       2.922573    2.264371   -1.448718
