18

C      -0.094976   -1.272833   -0.084451
C      -0.031646   -0.073276   -0.024317
C       0.026607    1.383014    0.030782
C      -0.610764    1.998298    1.267639
C       0.123712    2.988115    1.768103
C       1.393029    3.218107    0.989491
C       1.451432    2.001541    0.057401
C       2.667494    1.164960   -0.066979
N       2.269157    2.084745   -1.153570
H      -0.153366   -2.332327   -0.127268
H      -0.498947    1.766411   -0.860562
H      -1.570619    1.658325    1.636249
H      -0.155982    3.594214    2.622561
H       1.348013    4.149760    0.409148
H       2.280468    3.292536    1.628266
H       3.570106    1.455144    0.465114
H       2.541742    0.097085   -0.215534
H       1.834960    1.550371   -1.903857
