15

C      -0.052256    1.596082   -0.046627
C       1.484797    1.317272    0.005073
O       1.175928    0.191194    0.897802
C      -0.021760    0.035195    0.034199
C       0.627084   -0.332893   -1.296146
C       1.674895    0.563891   -1.307368
N       2.367826    0.362864   -2.437397
N       1.825335   -0.636528   -3.185882
C       0.761021   -1.059383   -2.486694
H      -0.411873    2.056959    0.876267
H      -0.474906    2.067486   -0.936282
H       2.225699    2.016506    0.386447
H      -0.815366   -0.563047    0.475051
H       3.199504    0.816430   -2.775723
H       0.159882   -1.861699   -2.887877
