11

N       0.077270    1.407317    0.060240
C      -0.022672    0.047013   -0.035125
N      -1.205498   -0.489918   -0.060350
O      -1.237311   -1.882262   -0.278883
C      -0.125072   -2.643419   -0.413066
O      -0.185272   -3.825597   -0.602303
C       1.133961   -1.859632   -0.293916
F       2.229320   -2.566963   -0.374935
N       1.203511   -0.606090   -0.124272
H       0.938266    1.753136    0.452735
H      -0.763796    1.898176    0.321157
