21

C       0.021938    1.184061    0.397343
O      -0.154270    0.087568   -0.477663
C      -1.350727   -0.593696   -0.257104
C      -1.479015   -1.985498   -0.846212
C      -0.357936   -2.613241   -1.645810
C      -1.361679   -1.798503    0.639398
C      -0.284586   -2.288302    1.597930
C      -1.476353   -2.512926    2.555579
O      -2.426365   -2.088641    1.548805
H       0.985900    1.638080    0.155585
H      -0.770403    1.935897    0.262488
H       0.023582    0.874345    1.452050
H      -2.245082    0.033272   -0.260862
H      -2.484965   -2.219824   -1.187463
H       0.617898   -2.284229   -1.281361
H      -0.399331   -3.706283   -1.587327
H      -0.424457   -2.330766   -2.701538
H       0.232356   -3.197853    1.284609
H       0.453141   -1.547374    1.909100
H      -1.654676   -3.547124    2.869231
H      -1.501174   -1.859973    3.436047
