21

O      -0.011113    1.422696   -0.076154
C      -0.008192    0.004811    0.001772
C       0.705246   -0.514799    1.258279
C       0.539234   -2.034488    1.375208
O      -0.824556   -2.413345    1.378638
C      -1.487157   -2.002553    0.192638
C      -1.441996   -0.498333    0.006297
C      -2.521193    0.340497    0.640350
C      -2.483779    0.154651   -0.859489
H       0.901884    1.723849   -0.042258
H       0.496897   -0.416618   -0.886757
H       1.773504   -0.261779    1.227912
H       0.266830   -0.027137    2.135656
H       1.068735   -2.533733    0.543775
H       0.966252   -2.405142    2.311261
H      -1.030979   -2.504099   -0.680276
H      -2.520256   -2.351781    0.277918
H      -3.292808   -0.169591    1.207383
H      -2.237362    1.312755    1.024028
H      -2.175020    1.002841   -1.459061
H      -3.234450   -0.479742   -1.320946
