15

C      -0.037641    1.399591   -0.026810
C       0.024567   -0.088983   -0.021347
O      -1.161630   -0.856715   -0.280057
C      -0.423049   -2.013509    0.215667
C       0.627144   -1.086049    0.901286
C       1.227097   -0.901309   -0.547048
O       2.447377   -0.362727   -0.845787
C       0.651485   -2.249284   -0.883689
O       1.012664   -3.192249   -1.525299
H       0.954662    1.815356    0.168636
H      -0.384626    1.763320   -0.999771
H      -0.727013    1.761183    0.740952
H      -1.028192   -2.800919    0.654477
H       1.145396   -1.077808    1.848590
H       2.359936    0.209678   -1.616699
