16

C      -0.046625    1.582253    0.027524
C       0.073391    0.075296    0.105471
N       1.232834   -0.717672   -0.288795
C       2.459555    0.065290    0.089162
C       2.051915    0.019883    1.569853
O       2.605640    0.242081    2.603962
C       0.763925   -0.692120    1.206518
C       0.171172   -1.770156    1.914329
C      -0.321348   -2.667544    2.546018
H       0.791426    2.117577    0.476047
H      -0.139361    1.897090   -1.017540
H      -0.954981    1.895181    0.550882
H      -0.835926   -0.435057   -0.208180
H       3.354306   -0.539550   -0.081016
H       2.574525    1.032231   -0.405354
H      -0.748508   -3.466071    3.100910
