18

C      -0.117242    1.562554    0.094600
C       0.039890    0.052103   -0.005219
C       0.906003   -0.464800   -1.198275
C       1.615582   -1.678019   -0.597804
C       1.108566   -1.919498    0.775087
C       2.550200   -1.456092    0.632692
C       2.106930   -0.176389    1.257541
O       2.622138    0.812057    1.689537
N       0.694107   -0.551703    1.197503
H       0.851028    2.056905    0.204683
H      -0.603400    1.948029   -0.807122
H      -0.732255    1.828195    0.958527
H      -0.951057   -0.412036   -0.066877
H       0.286322   -0.757848   -2.051130
H       1.610738    0.297464   -1.547231
H       1.909480   -2.511989   -1.226338
H       0.707809   -2.813581    1.230507
H       3.482885   -1.993704    0.745151
