23

C      -1.459957    0.505858   -2.383406
O      -0.730657   -0.648160   -2.023034
C      -1.243409   -1.837637   -2.621868
C      -0.463880   -3.016380   -2.102683
C      -0.081688   -4.200198   -2.973495
C      -0.497767   -4.359161   -4.422848
C       0.986883   -3.240576   -2.500667
C       1.708794   -2.256472   -3.399249
O       2.082577   -1.083549   -2.700658
H      -1.444114    0.675727   -3.470853
H      -2.509188    0.433105   -2.060141
H      -0.992527    1.357373   -1.884119
H      -2.309111   -1.942000   -2.362527
H      -1.188119   -1.748878   -3.716077
H      -0.701673   -3.251029   -1.068939
H      -0.092319   -5.147959   -2.440231
H      -0.474777   -3.423286   -4.984737
H       0.170585   -5.059656   -4.935341
H      -1.514152   -4.762576   -4.493485
H       1.622060   -3.602232   -1.696248
H       2.638456   -2.705442   -3.767646
H       1.105027   -2.015504   -4.287617
H       1.264298   -0.730942   -2.319889
