16

N      -0.045038    1.279121   -0.059891
C      -0.004016    0.021113   -0.020560
O       1.114091   -0.766692   -0.015827
C       0.624181   -2.115279    0.213568
O      -0.618718   -2.142641   -0.442338
C      -1.203963   -0.922002    0.029474
C      -1.706151   -1.125734    1.470108
C      -0.663463   -1.865159    2.276487
C       0.442357   -2.334963    1.701221
H       0.895909    1.676125   -0.064454
H       1.310166   -2.811635   -0.268532
H      -1.994465   -0.616043   -0.654355
H      -1.928240   -0.152654    1.922222
H      -2.646788   -1.691954    1.458476
H      -0.847685   -2.003175    3.338089
H       1.223819   -2.844280    2.253621
