14

O      -0.108934    1.320299   -0.269171
C       0.037856   -0.012729   -0.084075
C       1.267108   -0.608859   -0.088936
C       1.533847   -1.981540    0.228782
N       0.773051   -3.022034    0.195263
C      -0.537752   -3.029928   -0.269561
O      -0.949152   -3.915237   -0.989312
C      -1.467627   -1.978470    0.212306
C      -1.221560   -0.655115    0.211153
H       0.752629    1.724801   -0.425819
H       2.139923    0.030098   -0.208959
H       2.559047   -2.170426    0.560355
H      -2.467101   -2.331310    0.448953
H      -2.031423    0.036607    0.424534
