21

N      -0.027341   -1.133730   -0.010683
C      -0.005826    0.018641    0.063417
C       0.027533    1.478648    0.187775
N       1.346771    2.005644   -0.135668
C       1.428141    3.455240    0.033320
C       2.839562    3.961827   -0.269359
C       2.956852    5.466411   -0.156981
C       3.205455    6.119885    1.181274
C       4.287337    6.112860    0.129306
H      -0.702971    1.900729   -0.514159
H      -0.330132    1.740930    1.201286
H       2.041543    1.551608    0.449599
H       0.716605    3.913116   -0.667299
H       1.125115    3.784798    1.044618
H       3.548842    3.492162    0.426794
H       3.124063    3.628108   -1.274411
H       2.304840    6.014550   -0.833407
H       2.707120    7.056780    1.404006
H       3.336422    5.473169    2.043264
H       5.142214    5.463035    0.286339
H       4.526573    7.044655   -0.370834
