19

C      -0.104895    1.541526   -0.021545
C       0.008107    0.021230    0.010864
C       1.017370   -0.580856   -0.998078
O       2.278244   -0.107600   -0.533636
C       2.190509   -0.600809    0.791582
C       1.343694   -1.848834    0.693378
O       1.013155   -1.967514   -0.679151
C       0.726897   -0.561542    1.231621
C       0.272541   -0.372422    2.650964
H       0.881220    2.005242    0.064543
H      -0.561158    1.881611   -0.957435
H      -0.729799    1.907732    0.799220
H      -0.968489   -0.453126   -0.131946
H       0.901167   -0.416774   -2.066208
H       3.063767   -0.440537    1.406993
H       1.475317   -2.781119    1.223171
H       0.948010   -0.871614    3.353939
H       0.242101    0.688292    2.924388
H      -0.729405   -0.788542    2.806734
