18

C      -0.038152    1.521760   -0.069112
C       0.043565    0.006464   -0.008162
O       0.671766   -0.452832   -1.192093
C       0.738335   -1.871345   -1.242276
C       1.501555   -2.407543   -0.039949
O       0.900468   -1.947345    1.172984
C       0.802704   -0.535705    1.225358
C       2.139733    0.085180    1.367891
N       3.182674    0.567417    1.489006
H       0.960504    1.961408   -0.132375
H      -0.604771    1.821093   -0.953963
H      -0.542355    1.919231    0.817069
H      -0.968232   -0.428047    0.061678
H      -0.277555   -2.297350   -1.260276
H       1.245763   -2.131511   -2.175480
H       1.465764   -3.499050    0.002023
H       2.551777   -2.086508   -0.084194
H       0.229496   -0.308293    2.130420
