21

O      -0.425850    0.117048   -0.512988
C      -0.085129    1.149362    0.006879
C       1.274889    1.789009   -0.174615
C       1.297629    2.889645   -1.241237
C       0.668440    2.576865   -2.579451
C       0.007770    3.571859   -1.656540
C       2.532797    3.754586   -1.269748
C       3.174406    4.336326   -0.033795
C       3.897181    3.279735   -0.835197
H      -0.784475    1.708328    0.669182
H       1.572584    2.207595    0.795387
H       1.981712    0.998666   -0.446367
H       1.162640    2.949159   -3.470361
H       0.195359    1.608467   -2.702205
H      -0.927146    3.290729   -1.184699
H       0.064441    4.624926   -1.910565
H       2.537857    4.419087   -2.130718
H       3.531333    5.359322   -0.079731
H       2.786409    4.053841    0.939188
H       3.985492    2.292371   -0.395684
H       4.755290    3.572443   -1.430012
