18

C      -0.020703    1.615705   -0.012593
C       1.528184    1.529258    0.023568
C       1.386170    0.058573    0.534883
C      -0.069231    0.063793   -0.009281
C       2.350460   -0.969486    0.066148
C       2.196974   -1.975449   -0.831030
O       3.385263   -2.650005   -0.935654
C       4.205608   -2.001804   -0.081170
N       3.665728   -1.008315    0.541241
H      -0.424800    2.033383    0.914035
H      -0.480711    2.134729   -0.856110
H       1.959196    1.551880   -0.981348
H       2.073652    2.231100    0.657201
H       1.379541    0.064540    1.630222
H      -0.836502   -0.430775    0.590729
H      -0.114944   -0.330324   -1.029470
H       1.386337   -2.341961   -1.435454
H       5.215466   -2.373593   -0.003012
