20

C       2.801705   -0.300599    0.188916
N       1.703928   -1.225888    0.425505
C       1.919242   -2.302098    1.386004
C       0.978261   -1.187582    1.699249
C       1.288661   -0.200419    2.779449
C       0.471045    1.054844    2.919078
C       0.334855   -0.039708    3.964963
C      -0.873650   -0.804935    4.063577
C      -1.887395   -1.445245    4.164780
H       3.462434   -0.134920    1.054769
H       3.416692   -0.692095   -0.627823
H       2.400187    0.668419   -0.124449
H       1.550916   -3.284813    1.102771
H       2.863340   -2.313610    1.931942
H      -0.087073   -1.375916    1.582596
H       2.335302   -0.117758    3.051998
H       0.964489    1.973878    3.214448
H      -0.365695    1.184121    2.241738
H       0.818756    0.154931    4.917655
H      -2.782489   -2.009351    4.252143
