17

N      -0.202189   -1.231472   -0.009485
C      -0.123925   -0.078524    0.032380
C      -0.029837    1.375206    0.029445
N      -0.276481    2.006942    1.411835
C       1.188119    2.327281    1.399667
C       2.420455    3.280921    1.399508
C       2.800138    1.963299    0.556182
C       2.163849    1.150745    1.698931
C       1.375886    2.119707   -0.086502
H      -0.718107    1.752118   -0.731057
H      -0.845905    2.840674    1.273010
H       2.318119    4.209274    0.832633
H       2.981524    3.423904    2.327394
H       3.759789    1.787516    0.068153
H       2.669966    1.182173    2.666118
H       1.825288    0.143591    1.461803
H       1.249832    2.997357   -0.724674
