19

O       0.617054    0.614529   -0.853632
C       0.038474   -0.313888    0.024202
C       0.062033   -0.054796    1.569287
C      -1.396221   -0.535288    1.630341
C      -1.922358   -1.706379    2.412028
C      -2.454002   -0.316142    2.668446
C      -1.492102   -0.420492    0.125151
C      -2.492940    0.240265   -0.716819
O      -2.331353   -1.188715   -0.711520
H       0.249682    1.482228   -0.652786
H       0.476996   -1.283863   -0.226339
H       0.801640   -0.611889    2.148112
H       0.167626    1.013195    1.791241
H      -2.561749   -2.404250    1.881781
H      -1.273975   -2.154475    3.157912
H      -2.165314    0.182614    3.588068
H      -3.460641   -0.085887    2.333017
H      -3.417776    0.608211   -0.274689
H      -2.179887    0.734838   -1.635556
