14

N       0.022898    1.343936    0.009415
N       1.282163    1.862005    0.000251
C       2.098222    0.829017   -0.013387
C       1.377807   -0.404005   -0.013398
C       0.017589   -0.015046    0.001843
C      -0.995802   -0.979357    0.006152
C      -0.569518   -2.295114   -0.005332
N       0.722415   -2.700129   -0.020009
C       1.669734   -1.775317   -0.023907
H      -0.759197    1.975425    0.020504
H       3.166402    0.988005   -0.022746
H      -2.049604   -0.727090    0.017683
H      -1.305335   -3.094870   -0.002762
H       2.699336   -2.127297   -0.035768
