14

N       0.090260   -1.117193    0.119749
C      -0.003263    0.035527    0.043237
C      -0.063742    1.442019   -0.063342
C      -1.126343    2.261674   -0.049758
C      -0.514283    3.658995    0.006492
O      -0.031711    3.821961    1.357340
C       1.146330    3.004530    1.402563
C       1.149606    2.383051   -0.028549
O       0.657180    3.512412   -0.760342
H      -2.172091    2.010306    0.050248
H      -1.104503    4.523286   -0.286066
H       2.025558    3.637450    1.554612
H       1.072437    2.261797    2.201743
H       2.096701    2.020366   -0.417956
