18

C      -0.126070    1.580863    0.096666
C       0.016045    0.053186    0.013153
C       0.802873   -0.426802   -1.190457
C       1.821633   -1.243036   -0.866505
C       2.729828   -1.877619   -1.745070
C       3.516725   -2.449000   -2.457253
C       1.900253   -1.383647    0.629000
N       2.183652   -0.082950    1.292508
C       0.790377   -0.566166    1.179948
H       0.858556    2.041956    0.204137
H      -0.605198    1.981530   -0.802211
H      -0.738882    1.866555    0.957849
H      -0.992357   -0.386666   -0.017918
H       0.569693   -0.109159   -2.200378
H       4.208512   -2.938703   -3.096478
H       2.258767   -2.301373    1.080995
H       2.511663   -0.264356    2.239664
H       0.262166   -0.850658    2.083737
