11

O       0.160429    1.358450    0.006529
C       0.003845    0.041855    0.000885
C      -1.102036   -0.721212    0.002959
O      -0.653832   -2.065097   -0.006301
C       0.691906   -2.066753   -0.013479
O       1.417935   -3.003563   -0.022016
O       1.121535   -0.738968   -0.009038
C      -2.466608   -0.435717    0.011729
C      -3.647140   -0.195447    0.019292
H       1.104227    1.562829    0.003838
H      -4.686877    0.020994    0.025968
