17

C      -0.026071    1.414019   -0.081204
N      -0.019222   -0.023099   -0.065064
C      -1.098144   -1.019283   -0.050422
C       0.014113   -2.083391   -0.045830
C       0.135236   -3.368476    0.719512
C       0.127271   -3.383123   -0.787256
C       1.011059   -0.938584   -0.062206
O       2.209893   -0.815410   -0.070245
H       1.014530    1.747749   -0.092354
H      -0.531852    1.807768   -0.971931
H      -0.519198    1.828064    0.807426
H      -1.725402   -0.982628    0.848471
H      -1.733877   -0.999606   -0.943900
H       1.075300   -3.549037    1.229924
H      -0.744470   -3.732709    1.239605
H      -0.757964   -3.757263   -1.290677
H       1.061780   -3.573712   -1.304175
