17

C       0.039652    1.507674    0.038077
C       0.015698    0.002068    0.030429
C      -0.066043   -0.736674   -1.143483
N      -0.086862   -2.068111   -1.227341
C      -0.032635   -2.752776   -0.077704
N      -0.116267   -4.130120   -0.186312
C       0.053407   -2.130414    1.174902
C       0.079387   -0.745893    1.221141
O       0.165830   -0.156866    2.441504
H       0.959403    1.911496    0.484061
H      -0.015270    1.896006   -0.982175
H      -0.807881    1.938583    0.589260
H      -0.114197   -0.205778   -2.093682
H       0.085921   -4.467117   -1.116009
H       0.313737   -4.668533    0.549272
H       0.091536   -2.701156    2.095361
H       0.170133    0.799575    2.331736
