18

C       0.035855    1.503395   -0.072720
C      -0.071811    0.010637    0.017289
O       0.455470   -0.684736   -1.147498
C      -0.465075   -1.767571   -0.889574
C      -0.048505   -2.555172    0.402665
C       1.238297   -1.971045    1.005013
C       0.361372   -0.751786    1.328256
N      -0.905123   -1.622590    1.276478
C      -1.341250   -0.883956    0.023089
H       1.088889    1.806424   -0.091393
H      -0.444007    1.874323   -0.982777
H      -0.438933    1.974445    0.793678
H      -0.754079   -2.304868   -1.793230
H      -0.259271   -3.625685    0.431354
H       1.531067   -2.503665    1.912311
H       2.095753   -1.828073    0.345391
H       0.535628   -0.146912    2.220717
H      -2.375204   -0.574062   -0.129226
