13

O      -0.654536    0.745884    0.796842
C       0.180065    0.950109   -0.043572
C       1.241293    1.997164    0.087740
O       2.415939    1.774345   -0.714191
C       1.579590    2.821740   -1.090581
C       0.914804    3.057047   -2.446043
O       1.279372    4.471021   -2.340873
C       1.945374    4.302807   -1.145591
O       2.534432    5.102913   -0.502223
H       0.235259    0.374817   -0.994099
H       1.411418    2.407360    1.080798
H       1.413857    2.581417   -3.292468
H      -0.168236    2.937307   -2.503132
