21

N       0.460895    1.218161   -0.213137
C       0.297451   -0.163157   -0.115723
O       1.240458   -0.933004   -0.107898
N      -1.017684   -0.558090   -0.011292
C      -1.369880   -1.932583    0.290190
C      -1.659498   -2.237287    1.772149
C      -2.341173   -3.615323    1.725893
C      -3.110850   -3.654536    0.368867
C      -2.652638   -2.403189   -0.419668
H       1.391740    1.463719   -0.516065
H      -0.264501    1.734871   -0.688870
H      -1.693534    0.146335    0.244378
H      -0.514423   -2.531090   -0.034202
H      -0.757019   -2.214601    2.388191
H      -2.349064   -1.477986    2.166697
H      -1.581808   -4.403714    1.748280
H      -2.996791   -3.786698    2.583520
H      -2.878261   -4.571970   -0.178869
H      -4.193843   -3.649608    0.518893
H      -3.408426   -1.609910   -0.348622
H      -2.493105   -2.594681   -1.483884
