18

C      -0.595686    1.363599    0.210050
C      -0.068213   -0.047247    0.042110
C       0.647662   -0.369186   -1.290901
C       1.920867   -0.380136   -0.431595
C       3.046901   -1.452483   -0.499224
N       3.972424   -0.354450   -0.803021
C       3.051047    0.659139   -0.706770
O       3.113259    1.854512   -0.817256
O       1.177562   -0.250551    0.774934
H       0.161279    2.090374   -0.100533
H      -1.498405    1.508322   -0.393889
H      -0.849596    1.553015    1.257469
H      -0.812706   -0.787552    0.357127
H       0.391781   -1.336906   -1.725762
H       0.602735    0.406547   -2.057244
H       3.226575   -1.944323    0.461479
H       2.948384   -2.197995   -1.295140
H       4.961496   -0.344767   -1.001186
