24

C      -2.324326   -1.059765    2.785690
C      -1.357804   -1.087294    1.597595
C      -1.331559    0.264395    0.880444
N      -0.017913   -1.394379    2.102746
C       0.273264   -2.774677    2.463053
C       0.972354   -2.138951    1.310527
C       0.769107   -2.663682   -0.098731
C       1.353649   -1.753903   -1.175227
O       1.191793   -2.409946   -2.423430
H      -2.005603   -0.309094    3.515781
H      -3.337372   -0.814004    2.452526
H      -2.359092   -2.029959    3.290432
H      -1.715227   -1.857068    0.891472
H      -1.002867    1.048933    1.569216
H      -0.645090    0.254781    0.029506
H      -2.327516    0.522993    0.507308
H       0.777633   -2.935700    3.412946
H      -0.471983   -3.531995    2.215087
H       1.985679   -1.776498    1.488661
H       1.268889   -3.636761   -0.184664
H      -0.288080   -2.843616   -0.315091
H       0.846557   -0.777038   -1.170916
H       2.418152   -1.566167   -0.957379
H       1.552669   -1.842682   -3.110761
