16

N      -0.065019    1.537026    0.077801
C      -0.015482    0.094714   -0.007368
C       0.822631   -0.470457    1.155736
C       2.187532    0.052331    1.176591
N       3.254532    0.494234    1.207505
C      -1.388960   -0.608336   -0.158976
O      -0.939791   -1.248726   -1.390914
C       0.271015   -0.583743   -1.355870
N       1.217769   -0.545515   -2.172298
H       0.878837    1.916616    0.066101
H      -0.538467    1.923193   -0.733745
H       0.335729   -0.196708    2.098292
H       0.859067   -1.562858    1.098217
H      -1.658883   -1.347294    0.599428
H      -2.224412    0.071002   -0.345231
H       1.041356   -1.119327   -2.998521
