20

C       0.045173    1.503552    0.071981
C      -0.106005   -0.002818   -0.037081
O       0.696096   -0.453897   -1.127049
C       0.722960   -1.824328   -1.296990
O      -0.572323   -2.305447   -1.752745
C      -0.392885   -2.623878   -3.062032
N       0.770244   -2.614260   -3.558341
C       1.676467   -2.231424   -2.454644
C       2.676092   -1.161672   -2.883042
H       1.089831    1.776106    0.246352
H      -0.287400    1.990179   -0.849110
H      -0.557362    1.884199    0.901953
H       0.224440   -0.499713    0.889088
H      -1.152977   -0.282957   -0.208043
H       0.916824   -2.334384   -0.344539
H      -1.304489   -2.880401   -3.590737
H       2.224344   -3.133872   -2.155019
H       2.160247   -0.252287   -3.195576
H       3.353500   -0.907580   -2.062939
H       3.266194   -1.537744   -3.722242
