16

O      -0.889020    1.478885   -0.229459
C       0.222976    1.031872   -0.354960
C       1.489521    1.772457   -0.007860
C       1.602318    2.874787    0.957289
C       0.667147    2.696888    2.151772
C       1.387472    1.332393    2.392733
C       0.634571    0.094904    2.413553
C       0.021481   -0.939502    2.443668
N       2.322121    1.548414    1.207382
H       0.395507    0.033550   -0.810405
H       2.154241    1.822990   -0.871200
H       2.160843    3.777364    0.731967
H       0.853274    3.403773    2.960798
H      -0.396077    2.664368    1.919768
H       2.020224    1.382649    3.283025
H      -0.529396   -1.847574    2.462596
