19

C      -0.887222    1.083854   -0.064862
C       0.060277   -0.097434    0.033508
N       1.342677    0.059715   -0.698542
C       2.134569   -0.495544    0.424204
C       2.580270   -1.953967    0.279107
C       3.274362    0.363842    0.775112
N       4.145698    1.063610    1.071097
C       0.871402   -0.298431    1.354812
O       0.904764    0.752461    2.270864
H      -0.391384    2.014139    0.223557
H      -1.245251    1.199409   -1.092979
H      -1.755641    0.938091    0.585343
H      -0.474993   -1.022678   -0.224696
H       1.436677   -0.436419   -1.578317
H       3.294905   -2.061312   -0.542819
H       3.061007   -2.309558    1.195348
H       1.713368   -2.588622    0.071839
H       0.611671   -1.190958    1.926908
H       1.306351    1.526948    1.859543
