18

C       0.010773    1.589069   -0.034442
C      -0.069604    0.060579   -0.031474
C       0.737626   -0.557115   -1.177085
O       2.114181   -0.183809   -1.133615
C       0.632148   -2.076329   -1.269762
N       0.084481   -2.703749   -0.290369
O       0.084179   -4.078415   -0.464412
C       1.185366   -2.704838   -2.422148
C       1.646104   -3.190658   -3.422298
H       1.050277    1.923410    0.015535
H      -0.427908    2.006950   -0.947513
H      -0.529729    2.010490    0.818112
H       0.299204   -0.340779    0.919950
H      -1.109954   -0.271111   -0.113069
H       0.382267   -0.146414   -2.130346
H       2.489866   -0.565360   -0.331392
H      -0.363883   -4.389004    0.330731
H       2.057465   -3.629299   -4.297938
