18

O       0.011759    1.487210    0.055295
C       0.055378    0.066267    0.048757
C       0.896432   -0.496768    1.247729
C       0.093890   -0.057295    2.444126
C      -1.192520   -0.416008    2.430905
C      -2.343033    0.555463    2.265660
N      -2.619547   -0.091503    0.910443
C      -1.376097   -0.491678    0.107826
C      -1.765588   -1.259093    1.304887
H       0.908571    1.812832   -0.075572
H       0.489020   -0.291965   -0.899123
H       0.978533   -1.583280    1.137955
H       1.910402   -0.084584    1.237625
H       0.400125    0.840794    2.973255
H      -3.241243    0.375287    2.863838
H      -2.099786    1.620719    2.244542
H      -1.747388   -0.835328   -0.853222
H      -2.136898   -2.278058    1.340268
