23

C      -0.410449    2.584263   -1.643877
C       0.045025    1.355101   -0.843621
C      -1.140077    0.593044   -0.226191
O      -1.905010    1.374579    0.676485
C       0.838318    0.423379   -1.736081
O       2.146331    0.844837   -2.143697
C       2.034557   -0.354269   -1.352693
C       2.643546   -0.280341    0.031125
C       2.346408   -1.627870   -2.111976
H       0.451084    3.089995   -2.087714
H      -1.089258    2.299721   -2.457739
H      -0.925914    3.306332   -1.002649
H       0.681326    1.699058   -0.022365
H      -1.773213    0.178972   -1.029047
H      -0.768261   -0.254569    0.359301
H      -2.374654    2.042155    0.167901
H       0.246734    0.011895   -2.560837
H       2.452737    0.679499    0.512636
H       2.250341   -1.078143    0.670697
H       3.729227   -0.412725   -0.033364
H       3.429501   -1.752547   -2.219758
H       1.960517   -2.504193   -1.579779
H       1.904931   -1.603580   -3.111185
