17

C      -0.305242    1.428358    0.044202
C       0.147277   -0.030174   -0.015666
C       0.742982   -0.374492   -1.384599
N       1.088595   -1.761595   -1.601902
C       1.307634   -2.610178   -0.704680
O       1.346494   -2.554304    0.674081
C       1.602583   -1.452994    1.480972
O       2.197169   -1.620940    2.510878
N       1.126914   -0.258962    1.043036
H       0.539329    2.105744   -0.124138
H      -1.056978    1.625559   -0.723741
H      -0.748157    1.663338    1.016966
H      -0.724606   -0.678350    0.150171
H       0.023939   -0.098153   -2.165609
H       1.635496    0.242554   -1.552875
H       1.506990   -3.644369   -0.979646
H       1.288503    0.484784    1.704671
