14

N      -0.054345    1.277777   -0.044259
C       0.042635   -0.072035   -0.020801
O       1.105070   -0.681058    0.006000
C      -1.252902   -0.799265   -0.021726
N      -2.409053   -0.171824    0.040884
O      -3.367344   -1.143961    0.062342
C      -2.772321   -2.362891    0.004111
C      -1.414983   -2.221003   -0.052016
N      -0.400001   -3.149638   -0.187183
H       0.789003    1.825267   -0.015759
H      -0.955149    1.726992   -0.041354
H      -3.436950   -3.210629    0.011974
H      -0.557713   -4.036801    0.266385
H       0.506657   -2.744120    0.013672
