21

C      -0.792338    1.231265   -0.113697
C      -0.022963   -0.087545   -0.063650
C       1.089218   -0.223179   -1.146197
O       1.727634    1.007426   -1.504680
C       2.060436   -1.182942   -0.503444
C       1.855590   -1.285893    0.810414
C       0.673900   -0.465865    1.280255
C       1.115880    0.715205    2.151644
O       1.766940    0.179642    3.294557
H      -0.132680    2.093575    0.009810
H      -1.287106    1.346028   -1.083499
H      -1.565540    1.270105    0.660673
H      -0.728893   -0.901450   -0.269310
H       0.667969   -0.589383   -2.088565
H       2.366812    1.208388   -0.812494
H       2.865541   -1.649983   -1.060014
H       2.462866   -1.857780    1.502088
H       0.004595   -1.070045    1.905705
H       1.792906    1.371826    1.580345
H       0.240440    1.316119    2.439413
H       2.021120    0.908974    3.867223
