19

C      -0.165603    1.631328    0.071114
C      -0.203522    0.119738    0.136794
C      -1.441621   -0.494021   -0.499550
O      -1.442607   -0.260874   -1.899612
O       1.004247   -0.564488   -0.252803
C       0.590955   -0.659168    1.128543
C       1.506593    0.002838    2.142233
C       0.136882   -1.968868    1.551645
C      -0.196371   -3.047464    1.965845
H       0.828079    2.028684    0.277049
H      -0.460341    1.942125   -0.935273
H      -0.876641    2.065789    0.781935
H      -1.492482   -1.564094   -0.269101
H      -2.344943   -0.015068   -0.106894
H      -0.644567   -0.679191   -2.243803
H       1.865559    0.968280    1.786602
H       0.979985    0.143944    3.090850
H       2.370868   -0.640786    2.329440
H      -0.502757   -4.003270    2.313529
