21

C      -0.215483    1.616060   -0.050620
C       0.040037    0.116775    0.006648
C       1.106343   -0.596180   -0.887375
C       2.415260    0.120962   -0.510606
C       2.382447   -0.331422    0.967328
C       2.546347   -1.870625    0.804431
C       1.143349   -1.757039    0.197296
O       0.303430   -2.824532   -0.091766
C       0.814738   -0.553653    1.153082
H       0.683217    2.207447    0.145159
H      -0.606046    1.913381   -1.030826
H      -0.960715    1.903261    0.699779
H      -0.907822   -0.420891   -0.107065
H       0.909707   -0.823391   -1.935007
H       3.292816   -0.265553   -1.036920
H       2.376039    1.201338   -0.663989
H       2.967815    0.219401    1.700897
H       3.384317   -2.245480    0.207079
H       2.508460   -2.396030    1.765543
H       0.226355   -3.370915    0.697640
H       0.439579   -0.673229    2.170513
