18

C       0.671796    0.996885   -0.150678
O       0.920664    0.289148    1.047766
C      -0.129094   -0.564041    1.451570
C      -0.014929   -1.943923    0.790831
C       1.226401   -2.723995    1.238482
O       0.720949   -3.546446    2.296186
C      -0.636217   -3.632054    2.186866
N      -1.407140   -4.372441    2.847023
O      -1.091239   -2.776820    1.235679
H      -0.230824    1.619719   -0.067444
H       1.534491    1.644359   -0.323095
H       0.554711    0.333723   -1.020112
H      -0.046152   -0.682220    2.538052
H      -1.115174   -0.131621    1.232088
H      -0.083915   -1.861303   -0.296388
H       1.633911   -3.360787    0.445804
H       2.012320   -2.075019    1.628661
H      -0.868647   -4.961317    3.477743
