19

C       0.313779    1.751487    0.179554
C       0.112778    0.239290    0.310927
C       0.294263   -0.484996   -1.034189
O       1.613767   -0.350222   -1.543269
N       0.986651   -0.374493    1.333225
C       0.497107   -1.432470    2.098047
N      -0.678825   -1.886516    1.929105
C       2.311503    0.000854    1.500718
O       3.085745   -0.530407    2.265574
H       1.230794    1.998126   -0.360656
H      -0.521896    2.168494   -0.389979
H       0.331554    2.238883    1.158136
H      -0.903697    0.037234    0.656771
H       0.008230   -1.537226   -0.921732
H      -0.377848   -0.031544   -1.771202
H       2.148913   -1.063661   -1.184551
H       1.239955   -1.783380    2.815316
H      -0.859137   -2.641906    2.587522
H       2.594030    0.844097    0.855193
