17

N      -0.109028    1.217504   -0.545254
C      -0.079292    0.033242   -0.112798
O      -1.155259   -0.765539   -0.267684
C      -1.019748   -2.104102    0.212600
C      -2.377251   -2.747183    0.131543
C      -2.854377   -3.342196   -1.156330
C      -2.498802   -4.261056    0.003559
C      -1.321530   -5.081387   -0.071259
N      -0.370738   -5.738774   -0.126491
H       0.772742    1.684003   -0.343157
H       0.759149   -0.452800    0.405572
H      -0.293698   -2.656845   -0.396919
H      -0.657001   -2.099796    1.249199
H      -3.127249   -2.284849    0.765139
H      -3.903165   -3.261935   -1.414896
H      -2.173583   -3.330024   -1.999597
H      -3.320739   -4.724977    0.537603
