17

C      -0.275585    1.410753   -0.363644
O      -0.383893    0.025208   -0.597376
C      -0.984017   -0.649959    0.489389
C      -1.074286   -2.076235    0.208078
C      -1.159661   -3.258950    0.004688
C      -1.296759   -4.695349   -0.272807
O      -2.519471   -5.007845   -0.933344
C      -0.127625   -5.200370   -1.009084
C       0.807521   -5.622906   -1.633124
H       0.194224    1.850247   -1.246026
H      -1.261298    1.879275   -0.213042
H       0.346726    1.630042    0.518620
H      -0.399947   -0.493359    1.413488
H      -1.993114   -0.246615    0.685880
H      -1.362443   -5.230540    0.683539
H      -2.511068   -4.546922   -1.780515
H       1.638869   -5.995010   -2.179582
