20

C       0.226642    1.500578   -0.045026
C      -0.072511    0.010991    0.003509
C      -1.420225   -0.448333    0.608263
O      -0.758161   -1.447180    1.416454
C       0.541844   -0.871540    1.125719
C       1.553119   -1.814332    0.471848
N       1.370522   -1.762690   -0.992974
C       0.027919   -2.166678   -1.430750
C       0.347731   -0.722830   -1.270804
H       1.278667    1.683701   -0.288908
H      -0.379819    1.998659   -0.810021
H       0.012807    1.979919    0.915308
H      -1.907748    0.311850    1.233399
H      -2.156929   -0.885236   -0.074056
H       0.942271   -0.353006    2.006196
H       2.569910   -1.470498    0.693567
H       1.453392   -2.838514    0.845060
H      -0.011167   -2.596430   -2.428504
H      -0.627496   -2.636056   -0.702893
H       0.519553   -0.115130   -2.155867
