19

C      -0.085371    1.434619    0.008768
O       1.343526    1.656922    0.147263
C       1.988690    0.849859   -0.820730
C       2.290400   -0.644360   -0.617564
C       2.089695   -1.516855    0.622014
C       0.671487   -2.175564    0.580031
C      -0.291462   -1.013534    0.554596
C      -0.070454   -0.035823   -0.326996
C       1.038894   -0.178457   -1.338594
H      -0.560312    1.676704    0.962042
H      -0.484076    2.086867   -0.781008
H       2.671439    1.410728   -1.452114
H       3.099807   -0.969642   -1.268367
H       2.868479   -2.286185    0.657470
H       2.176629   -0.929820    1.542056
H       0.599991   -2.816212   -0.305897
H       0.505825   -2.811113    1.454594
H      -0.937676   -0.850682    1.413948
H       0.836692   -0.383786   -2.383904
