23

C       0.098613    1.565107    0.151380
C       0.047853    0.052045    0.070002
C      -0.910380   -0.686593    0.978957
C       0.579227   -0.740045    1.239449
C       1.398586   -1.989685    0.992787
C       2.781941   -1.668148    0.403981
C       2.796369   -1.038367   -0.967953
C       1.785535   -0.561711   -1.698995
C       0.315386   -0.509951   -1.325644
H       1.065117    1.941910   -0.203124
H      -0.685052    2.023086   -0.464507
H      -0.039790    1.914233    1.179649
H      -1.531087   -0.107079    1.654829
H      -1.390448   -1.583158    0.597840
H       0.931852   -0.144348    2.079667
H       1.526783   -2.541597    1.932259
H       0.866941   -2.667805    0.316290
H       3.328294   -1.010804    1.098730
H       3.381604   -2.588615    0.361601
H       3.791176   -0.981644   -1.409482
H       2.031602   -0.172324   -2.685001
H      -0.123892   -1.510528   -1.417536
H      -0.217790    0.103415   -2.061863
