16

O      -0.131469    1.404027   -0.117780
C      -0.112181    0.018975   -0.047597
C      -0.486599   -0.712728    1.223077
N      -1.157177    0.070644    2.234353
C      -2.274792    0.453264    1.729937
N      -2.552329   -0.008551    0.453344
C      -3.686402    0.270642   -0.284996
N      -4.633777    0.978569    0.181498
C      -1.413109   -0.757325   -0.008051
H      -0.040391    1.748099    0.779466
H       0.680784   -0.444116   -0.630698
H       0.119199   -1.541224    1.570870
H      -2.996945    1.093570    2.218305
H      -3.650814   -0.188119   -1.278701
H      -5.380542    1.068438   -0.502906
H      -1.605702   -1.617134   -0.638513
