20

C       0.094448    1.514757    0.092441
C      -0.016189   -0.006952    0.184900
O       0.338956   -0.473897    1.484074
C      -1.407752   -0.508555   -0.237524
C      -1.497263   -2.017032   -0.305767
C      -1.740860   -2.841699    0.916705
C      -2.832081   -2.744649   -0.141340
C      -4.027408   -2.002202    0.140690
N      -4.987854   -1.396880    0.367065
H       1.084029    1.842041    0.422115
H      -0.065659    1.865926   -0.931824
H      -0.657604    1.997596    0.729498
H       0.734722   -0.458497   -0.476469
H      -0.199946    0.005951    2.123199
H      -2.156672   -0.118142    0.464119
H      -1.657666   -0.083235   -1.217725
H      -0.855976   -2.468983   -1.058390
H      -1.241892   -3.797901    1.020519
H      -1.913890   -2.319313    1.849251
H      -2.995185   -3.615651   -0.766684
