14

O      -0.004814    0.025378   -0.120955
C      -0.042904    1.209912    0.039399
C      -1.127284    2.254012   -0.040243
C      -0.984252    3.226351    1.120731
C      -0.032177    3.359302   -0.017541
C       1.048438    2.298339    0.138627
C       2.374059    2.320208    0.760026
O       2.207193    2.231502   -0.662657
H      -2.039020    2.188501   -0.618975
H      -1.777957    3.964224    1.175893
H      -0.635296    2.876020    2.088082
H       0.038391    4.224812   -0.661297
H       2.775726    3.264771    1.124003
H       2.759458    1.420947    1.237093
