21

C      -0.127897    1.445114    0.119332
C       0.015534   -0.076456    0.010547
C      -1.335587   -0.712785   -0.307481
C       1.223273   -0.483073   -0.886768
C       2.123316   -0.590063    0.369275
C       0.846794   -0.639061    1.254943
O       0.805542    0.066200    2.472993
C       0.450782   -2.056086    1.619517
O       0.675547   -3.027567    0.942500
H       0.835398    1.947569    0.265651
H      -0.558032    1.845087   -0.804923
H      -0.790559    1.724546    0.945227
H      -1.724573   -0.319588   -1.253796
H      -1.261511   -1.798605   -0.405442
H      -2.075740   -0.488033    0.469734
H       1.071264   -1.459178   -1.350761
H       1.519637    0.237317   -1.653388
H       2.784482   -1.455117    0.438423
H       2.700367    0.318693    0.562272
H       1.066135    0.977156    2.308879
H      -0.084885   -2.125137    2.591333
