20

C      -0.088151    1.509871    0.229298
C       0.121609    0.038806    0.049583
C       0.389743   -0.703806   -1.268933
C       1.239427   -1.750255   -0.469545
C       0.931430   -0.961745    0.812524
C       1.795502   -0.818139    2.036916
C       1.673751   -2.019553    2.958520
O       1.365190   -1.956021    4.119955
N      -0.556165   -0.959382    0.919434
H       0.658015    2.086363   -0.327969
H      -1.078873    1.811260   -0.131362
H      -0.018305    1.797302    1.284275
H      -0.500720   -1.082188   -1.776455
H       0.994412   -0.124127   -1.970696
H       0.882008   -2.782658   -0.483843
H       2.297483   -1.724473   -0.742900
H       2.848183   -0.732875    1.730405
H       1.534448    0.076653    2.611636
H       1.886851   -2.998747    2.472700
H      -0.788274   -0.480886    1.791775
