23

C       0.604244    1.716669    0.031513
C       0.141145    0.258694   -0.060997
C       0.618343   -0.475867   -1.326402
C       2.137151   -0.816603   -1.326488
C       1.801670   -2.276922   -0.924440
C       0.310738   -2.017503   -1.268553
C       0.100119    0.182570   -2.600347
C      -1.409215    0.336212   -2.732121
O       0.841832    0.544577   -3.486437
H       1.695487    1.791708   -0.004470
H       0.209799    2.321290   -0.792182
H       0.269433    2.172822    0.967986
H       0.508281   -0.296670    0.811243
H      -0.953623    0.212055   -0.005733
H       2.558002   -0.725612   -2.328914
H       2.761912   -0.246895   -0.634401
H       2.298747   -3.068066   -1.489848
H       1.956219   -2.471719    0.139795
H      -0.436447   -2.327345   -0.532277
H       0.027603   -2.427114   -2.242541
H      -1.939308   -0.558872   -2.392518
H      -1.753666    1.169530   -2.109158
H      -1.661057    0.551564   -3.771346
