18

C      -0.032056    1.520843    0.634845
C       0.173814    0.058048    0.313054
C       0.464464   -0.458705   -1.092921
C       0.581614    0.481765   -2.235120
O       1.109643    1.573208   -2.221363
N       1.447686   -0.540720    0.001908
C       2.674464    0.269378   -0.041938
C       3.719379   -0.429017   -0.783202
C       4.579942   -0.987675   -1.407708
H       0.356608    1.742171    1.635081
H       0.449245    2.180942   -0.086480
H      -1.103340    1.744905    0.643006
H      -0.458352   -0.609407    0.899524
H       0.049558   -1.423996   -1.375821
H       0.122674    0.092165   -3.170348
H       2.531311    1.261547   -0.484923
H       2.990381    0.406878    0.999392
H       5.344887   -1.480582   -1.954730
