14

O      -0.142607    1.484546    0.124787
C      -0.029278    0.092164    0.006535
C      -1.360686   -0.657601    0.046710
C      -2.191516   -0.271394   -1.115440
C      -1.072919   -1.300401   -1.353915
C      -1.335537   -2.614234   -1.833642
N      -1.528236   -3.687034   -2.222598
C       0.237014   -0.542317   -1.395932
O       1.172284   -0.531920   -2.136899
H       0.717425    1.873636   -0.069527
H       0.696461   -0.333985    0.716443
H      -1.752270   -1.187485    0.903759
H      -3.186512   -0.698813   -1.166875
H      -2.091926    0.716705   -1.550141
