22

C      -0.017137    1.542409    0.048702
C       0.077477    0.021703    0.024681
C       0.732369   -0.575442   -1.245307
C       1.326616   -1.911221   -0.758475
C       1.593124   -1.677121    0.726459
C       1.669387   -2.874572    1.643427
O       2.744532   -3.741128    1.304511
C       2.284601   -0.404001    1.080152
N       0.819785   -0.511914    1.193027
H       0.974522    2.001325   -0.030201
H      -0.621223    1.903284   -0.789883
H      -0.478197    1.888297    0.978050
H      -0.934416   -0.392472    0.122442
H       0.011140   -0.703612   -2.056479
H       1.515800    0.089815   -1.624131
H       0.598763   -2.724859   -0.860996
H       2.220741   -2.213306   -1.310088
H       1.727600   -2.534021    2.687588
H       0.761497   -3.480667    1.545292
H       3.558279   -3.231576    1.380035
H       2.797762   -0.311318    2.034317
H       2.716570    0.196110    0.283478
