17

O      -0.203121    1.380546    0.133436
C       0.005249    0.005651   -0.002491
C       0.789996   -0.286277   -1.270221
O       1.147718    0.611893   -1.995818
C       0.736134   -0.566988    1.224297
O       0.774220   -1.961744    1.022561
C       2.060665    0.130559    1.626218
O       1.519655    0.517042    2.901882
C       0.236893   -0.067425    2.602462
H       0.210364    1.784971   -0.647164
H      -0.952322   -0.538242   -0.084019
H       1.015808   -1.345653   -1.482783
H       1.222753   -2.371076    1.769903
H       2.920247   -0.547502    1.717612
H       2.341303    0.997333    1.017048
H      -0.562062    0.680026    2.574853
H      -0.031651   -0.875211    3.297182
