21

C       0.070274    1.568462   -0.125933
C       0.000424    0.043598   -0.009346
C       0.761780   -0.678679   -1.130830
C       1.314170   -1.799866   -0.661277
C       2.759022   -2.249609   -0.543366
C       2.571571   -1.867522    0.975720
C       2.295456   -0.358123    1.321795
C       0.724011   -0.558895    1.228500
C       1.027717   -2.014563    0.822473
H       1.106275    1.919100   -0.185493
H      -0.451083    1.920778   -1.022268
H      -0.396514    2.047982    0.741175
H      -1.062432   -0.243077    0.031110
H       1.037644   -0.175972   -2.052818
H       2.924585   -3.330248   -0.621648
H       3.499479   -1.721255   -1.150383
H       3.168126   -2.426663    1.700150
H       2.612539   -0.122385    2.340223
H       2.737902    0.380935    0.649684
H       0.206388   -0.376955    2.175493
H       0.451784   -2.882100    1.148183
