18

C      -0.246772    1.508840   -0.046097
C      -0.031636    0.031446    0.011630
N      -0.028090   -0.725422   -1.089218
N       0.189408   -1.946607   -0.623143
N       0.330098   -2.063541    0.691306
C       0.193180   -0.808367    1.129198
C       0.276427   -0.446140    2.555758
C      -0.250079   -1.389684    3.620140
C       1.228596   -1.179890    3.480571
H       0.611259    2.057033    0.358355
H      -0.394262    1.821737   -1.081613
H      -1.127352    1.810502    0.531673
H       0.244937   -2.744546   -1.233868
H       0.143967    0.613518    2.745423
H      -0.759693   -0.955539    4.473230
H      -0.660585   -2.329489    3.269285
H       1.810640   -1.978880    3.035953
H       1.746264   -0.600093    4.236748
