20

C       0.212221    1.661515    0.092630
C       0.133666    0.134313    0.137111
C       0.666965   -0.580308   -1.125791
C       1.159174   -1.949320   -0.609355
N       1.547406   -1.797471    0.811416
C       2.416122   -0.662066    1.070976
C       0.934529   -0.512955    1.262050
C       0.393110   -0.514673    2.644538
O      -0.560210    0.135538    2.999680
H       1.245367    2.001304   -0.042079
H      -0.381237    2.057924   -0.737579
H      -0.173061    2.091613    1.020533
H      -0.913344   -0.148766    0.300963
H      -0.096969   -0.682372   -1.900521
H       1.487884   -0.005493   -1.567851
H       0.353425   -2.689947   -0.637648
H       2.000975   -2.352927   -1.180142
H       3.061092   -0.771771    1.938989
H       2.865912   -0.121204    0.241932
H       0.943747   -1.179622    3.346082
