23

C      -0.094400    1.429695    1.019939
O      -0.084239    0.027170    1.120948
C       0.823042   -0.583785    0.227894
C       0.748576   -2.073417    0.386067
C      -0.522388   -2.809693    0.689203
C       0.631536   -2.916677    1.656103
C       1.708347   -3.886305    1.140478
C       1.394480   -5.375530    1.064245
C       1.787295   -3.049179   -0.186438
H      -0.388183    1.765473    0.012514
H      -0.822086    1.805443    1.743494
H       0.891677    1.864166    1.249961
H       0.587506   -0.293661   -0.813124
H       1.851274   -0.231664    0.429323
H      -1.334364   -2.178949    1.032702
H      -0.831152   -3.658248    0.082561
H       0.530861   -2.578520    2.680810
H       2.634135   -3.742909    1.707073
H       0.472822   -5.567664    0.505266
H       2.203344   -5.922923    0.567090
H       1.270086   -5.802020    2.065939
H       1.492383   -3.565647   -1.106915
H       2.772793   -2.601482   -0.341881
