14

C      -0.028883    1.521742    0.021793
C      -0.006129    0.018710   -0.001177
C      -0.037187   -0.728401   -1.174835
N      -0.018364   -2.066325   -1.234543
C       0.033357   -2.706698   -0.091507
F       0.051804   -4.034424   -0.154420
C       0.069850   -2.111626    1.166812
C       0.048546   -0.730048    1.176916
F       0.080960   -0.087157    2.343710
H       0.862784    1.927529    0.511005
H      -0.071745    1.921006   -0.994237
H      -0.895343    1.899948    0.574314
H      -0.080116   -0.212273   -2.131158
H       0.112162   -2.690921    2.079053
