20

C      -0.016403    1.506386    0.015814
C       0.043261   -0.021592    0.019243
C       0.756038   -0.557919   -1.218695
O       0.837384   -1.992065   -1.202977
C       1.058368   -2.557277    0.004259
C       1.317183   -4.043247   -0.104122
O       1.485247   -4.628342    1.155494
N       1.068874   -2.004024    1.144422
C       0.764007   -0.582861    1.252989
H       0.989725    1.940827   -0.005575
H      -0.563931    1.884561   -0.853793
H      -0.519234    1.878791    0.913729
H      -0.978940   -0.422299    0.009478
H       0.229092   -0.303101   -2.141565
H       1.775449   -0.152451   -1.281178
H       0.474015   -4.499391   -0.645827
H       2.207676   -4.189607   -0.736390
H       1.424946   -3.886934    1.781086
H       1.700596   -0.032616    1.425222
H       0.154401   -0.431183    2.151069
