18

O      -0.141505    0.000248    0.083297
C      -0.002361    1.187527   -0.099359
C       1.281720    1.903022   -0.060637
C       1.302808    3.379661    0.324249
C       1.584021    3.016383   -1.091318
C       3.023127    2.820303   -1.582948
C       3.603387    1.659838   -0.777972
N       3.682899    1.904370    0.677198
C       2.557895    1.117680    0.128407
H      -0.878425    1.840964   -0.322981
H       0.343334    3.840846    0.537103
H       2.121680    3.672406    0.969405
H       0.830093    3.268146   -1.830356
H       3.009539    2.550717   -2.644198
H       3.623187    3.730665   -1.481551
H       4.354891    1.025284   -1.237365
H       4.365529    1.274124    1.090768
H       2.461857    0.065445    0.365786
