21

C      -0.092227    1.600943    0.005290
C       0.009158    0.093109   -0.022861
C       0.683965   -0.671802   -1.147079
C       1.409864    0.047204   -2.282199
C       2.935559    0.024108   -2.122367
O       3.455090    0.948939   -3.075818
C       3.347464    0.378262   -0.709264
C       2.607319    0.071938    0.356766
C       1.315678   -0.647924    0.228073
H       0.846712    2.081022   -0.280659
H      -0.875268    1.957284   -0.673788
H      -0.344918    1.949616    1.012669
H      -0.865612   -0.405956    0.387753
H       0.200656   -1.600858   -1.432422
H       1.143161   -0.399027   -3.244677
H       1.117836    1.100528   -2.339959
H       3.304848   -0.990485   -2.354556
H       4.415541    0.891225   -3.055863
H       4.299721    0.893033   -0.596777
H       2.945912    0.337913    1.355947
H       1.234044   -1.547921    0.833092
