18

C       0.338269    1.426518    0.032418
C       0.064729   -0.069827    0.022350
C      -1.409348   -0.393626   -0.217401
N       0.982297   -0.836512   -0.898027
C       1.345134   -1.782756    0.188474
C       0.611991   -0.901818    1.217301
O       1.891196   -0.443328    1.747915
C       2.609587   -1.279266    0.905957
O       3.784687   -1.429886    0.870709
H       1.388890    1.624405    0.251044
H       0.103477    1.858226   -0.945998
H      -0.276890    1.931495    0.784894
H      -1.720995   -0.039270   -1.206020
H      -1.596874   -1.472107   -0.168219
H      -2.044765    0.095080    0.529000
H       0.497618   -1.282909   -1.668521
H       1.221116   -2.851744    0.021224
H      -0.057293   -1.222749    2.013689
