18

N       0.006592    1.326481    0.134044
C       0.074278   -0.042644    0.071563
O       1.142056   -0.626530    0.009470
C      -1.246999   -0.754638    0.059295
C      -1.236883   -2.089716    0.108263
C      -2.488084   -2.911027    0.142228
O      -3.663644   -2.149621    0.335345
C      -3.676252   -0.970982   -0.448396
C      -2.561546   -0.009118   -0.022801
H       0.879394    1.809512    0.275475
H      -0.836369    1.799581    0.409884
H      -0.282376   -2.607650    0.121721
H      -2.556892   -3.508618   -0.786639
H      -2.447431   -3.628764    0.970605
H      -3.560005   -1.217816   -1.516512
H      -4.662762   -0.520532   -0.310286
H      -2.816792    0.444536    0.945401
H      -2.498759    0.807917   -0.752741
