18

C       0.047936    1.522028   -0.073975
C      -0.000526    0.020859   -0.046751
C      -1.134439   -0.684940    0.037668
C      -1.147288   -2.190078    0.057385
O      -2.239342   -2.741442   -0.667353
C       0.110696   -2.692073   -0.640786
O       1.283575   -2.056090   -0.132923
C       1.298299   -0.690900   -0.063360
N       2.392249   -0.053139    0.044796
H       0.626473    1.906259    0.770932
H       0.553886    1.877241   -0.977032
H      -0.959777    1.944060   -0.042170
H      -2.095047   -0.177618    0.100014
H      -1.156087   -2.551892    1.099499
H      -3.050243   -2.546089   -0.187879
H       0.256349   -3.762241   -0.484896
H       0.006881   -2.502496   -1.716867
H       3.177359   -0.707352    0.029723
