19

C      -0.148045    1.534759    0.079333
C      -0.159160    0.013117   -0.043132
O      -1.435612   -0.447671   -0.514459
C       0.879869   -0.500145   -1.049178
C       1.004990   -1.988404   -1.095938
C       2.084609   -2.836397   -1.064301
N       1.686147   -4.150141   -1.164183
C       0.376032   -4.102542   -1.253233
N      -0.086738   -2.822312   -1.225240
H       0.814395    1.889521    0.461537
H      -0.331373    1.999553   -0.894501
H      -0.925596    1.876279    0.772114
H       0.053010   -0.436899    0.938779
H      -2.104622   -0.180311    0.123477
H       0.606519   -0.096300   -2.034650
H       1.857104   -0.078846   -0.795208
H       3.128146   -2.570275   -0.979253
H      -0.284139   -4.953050   -1.337920
H      -1.038150   -2.488544   -1.205330
