12

N       0.058512    1.216503    0.320642
C      -0.051923    0.019399   -0.036540
O      -1.055722   -0.738130    0.519376
C      -1.094997   -2.046255    0.221642
C      -2.099521   -2.876576   -0.139764
N      -1.589876   -4.169402   -0.222629
C      -0.342302   -4.049570    0.078619
O       0.048792   -2.777698    0.373555
H       0.825794    1.664050   -0.176669
H       0.552728   -0.537978   -0.757429
H      -3.131192   -2.641704   -0.338828
H       0.422297   -4.808464    0.120434
