23

C       0.203389    1.616197   -0.442232
O      -0.291007    0.303825   -0.322590
C       0.539149   -0.673875   -0.917030
C       1.862448   -0.962060   -0.161044
C       2.022887   -2.463742   -0.278318
C       3.314761   -3.110424    0.114940
C       0.894547   -3.045472   -0.710522
C       0.615778   -4.501378   -0.919169
C      -0.196973   -2.025213   -0.949835
H       1.157310    1.755124    0.088710
H       0.354996    1.899316   -1.496605
H      -0.540249    2.285724   -0.002341
H       0.780639   -0.362793   -1.946770
H       2.719949   -0.413372   -0.569805
H       1.765016   -0.656337    0.891580
H       3.556362   -2.898381    1.165028
H       3.299729   -4.195695   -0.010495
H       4.149681   -2.714997   -0.478392
H       1.480463   -5.133098   -0.703078
H      -0.212269   -4.837184   -0.280869
H       0.305340   -4.697841   -1.953726
H      -0.949999   -2.048677   -0.149297
H      -0.737139   -2.185502   -1.890447
