19

C      -0.181051    1.542099   -0.067094
C       0.006200    0.055449    0.031912
O      -0.539771   -0.685476   -1.052068
C      -1.403944   -1.639430   -0.468865
O      -0.848132   -1.985469    0.791448
C      -0.205007   -0.803158    1.238111
C       1.203250   -0.606397    0.709480
C       1.938944   -1.783039    0.090847
O       2.013132   -2.899343    0.963123
H       0.339197    1.937180   -0.945651
H      -1.241768    1.798696   -0.154474
H       0.224680    2.039684    0.818328
H      -2.412523   -1.214176   -0.330772
H      -1.443309   -2.529738   -1.101902
H      -0.524677   -0.447325    2.211788
H       1.808181    0.065545    1.313727
H       1.468052   -2.047663   -0.864103
H       2.972068   -1.494352   -0.124515
H       1.100521   -3.171997    1.115897
