21

C      -0.268286    1.461736    0.118283
C       0.069585   -0.029791   -0.068080
C       0.934790   -0.252293   -1.323195
C       0.703263   -0.618619    1.161333
C       0.288212   -1.622104    2.013614
C       1.303455   -1.736779    2.995764
C       1.369175   -2.669757    4.163877
N       2.283762   -0.864870    2.771130
N       1.898291   -0.201184    1.658007
H       0.638517    2.061591    0.256856
H      -0.789405    1.851750   -0.761922
H      -0.906027    1.615397    0.993111
H      -0.872547   -0.571350   -0.210638
H       1.892248    0.275500   -1.246126
H       1.150791   -1.314044   -1.470469
H       0.423412    0.123186   -2.215348
H      -0.624382   -2.192300    1.934294
H       1.351675   -3.717205    3.842653
H       2.290032   -2.497512    4.725143
H       0.520072   -2.525472    4.841259
H       2.497703    0.520044    1.295793
