18

C       0.116915    1.560943    0.213099
C       1.635686    1.935768   -0.010691
C       2.175984    0.627336    0.510897
C       2.294421    0.366151    1.821137
C       1.482775   -0.856761    2.211123
C       0.678486   -1.103159    0.931892
C       0.043127    0.016893    0.039944
C       1.432213   -0.488285   -0.203178
H      -0.200401    1.899431    1.204555
H      -0.537599    2.040340   -0.523783
H       1.837460    2.114823   -1.071779
H       1.943904    2.812542    0.563319
H       2.602731    1.101318    2.558534
H       2.062336   -1.752708    2.478772
H       0.864975   -0.616327    3.086873
H       0.199390   -2.070824    0.806518
H      -0.784555   -0.357218   -0.556135
H       1.801737   -0.977181   -1.097729
