23

C      -0.235893    1.506968    0.175768
C       0.069468    0.030485    0.025176
C       0.598908   -0.675269   -1.223492
C      -0.089786   -1.941215   -1.678433
C       1.304915    0.170718   -2.281362
C       2.458225    0.926545   -1.566836
C       2.688374    0.197875   -0.219971
C       1.432847   -0.626158    0.038818
O       1.596138   -1.800087    0.788143
H       0.495509    2.152609   -0.312146
H      -1.216746    1.743594   -0.252361
H      -0.267122    1.791248    1.234160
H      -0.660151   -0.594976    0.538133
H      -0.991571   -1.719289   -2.261263
H       0.572810   -2.543871   -2.310803
H      -0.378106   -2.556191   -0.821993
H       1.706599   -0.503805   -3.046811
H       0.626855    0.858454   -2.799784
H       3.366419    0.936089   -2.175863
H       2.194564    1.973942   -1.401894
H       3.522336   -0.508932   -0.289058
H       2.926243    0.895548    0.592016
H       1.558181   -1.566221    1.721371
