18

C      -0.007097   -1.161745   -0.069225
C       0.016341    0.037956    0.006683
C       0.015041    1.479614    0.049301
C      -1.177306    2.127411   -0.651103
C      -1.129658    3.667631   -0.683066
C       0.239569    4.194316   -1.027287
C       1.351718    3.520151   -0.726701
C       1.326929    2.217070   -0.017630
N       0.603559    2.071477    1.268355
H      -0.015976   -2.222235   -0.120820
H      -1.190622    1.745698   -1.678604
H      -2.106346    1.789219   -0.180704
H      -1.868508    4.030456   -1.405561
H      -1.455304    4.075647    0.285004
H       0.303791    5.158703   -1.522533
H       2.327797    3.917317   -0.989207
H       2.237505    1.627423   -0.054369
H       0.134258    2.948632    1.485999
