18

C       0.040663    1.415276    0.095878
C      -0.034646   -0.097667    0.093201
O      -0.253393   -0.746587    1.083262
C       0.155323   -0.776265   -1.292468
C       0.799178   -2.075152   -1.157222
C       1.325447   -3.149636   -1.045056
C      -1.233368   -0.853588   -1.952586
C      -1.608352   -1.962385   -2.860754
N      -2.211057   -1.851245   -1.518944
H       1.073677    1.726918   -0.100797
H      -0.577302    1.843507   -0.700396
H      -0.276195    1.802136    1.064715
H       0.778898   -0.122737   -1.917314
H       1.802665   -4.092272   -0.935236
H      -1.663129    0.129836   -2.134806
H      -2.288522   -1.772972   -3.686268
H      -0.872638   -2.741636   -3.033595
H      -1.759882   -2.509892   -0.885856
