18

O       0.201629    1.350685   -0.144540
C       0.107669   -0.047568   -0.062534
C      -0.583651   -0.781589   -1.193549
C      -1.291552   -0.531251    0.116763
O      -1.581183   -1.642660    0.928783
C      -1.167883   -1.687634    2.239518
N      -0.170018   -1.219967    2.843565
C       0.928151   -0.470016    2.256402
C       1.188032   -0.711600    0.763630
H       0.931550    1.562798   -0.737500
H      -0.916075   -0.204512   -2.048920
H      -0.275185   -1.799924   -1.402486
H      -2.076621    0.220160    0.129715
H      -1.879121   -2.306264    2.787654
H       0.753049    0.601062    2.421914
H       1.824106   -0.724208    2.834701
H       1.223455   -1.787535    0.565089
H       2.167174   -0.304070    0.479876
