21

C       0.089174    1.405061    0.394540
O       0.030154    0.076857   -0.105014
C      -1.222606   -0.457853   -0.087138
C      -2.153876   -0.895842    1.020224
C      -3.335649   -0.146744    0.408782
C      -2.562111   -0.201568   -0.936104
C      -2.536032   -1.717879   -1.298687
C      -1.832347   -2.032017   -2.613037
C      -1.643026   -1.890676   -0.068270
H       1.134101    1.718165    0.343879
H      -0.520290    2.088318   -0.212746
H      -0.257027    1.453334    1.435551
H      -1.924754   -1.073641    2.063182
H      -4.323624   -0.621302    0.424166
H      -3.413726    0.870639    0.803129
H      -2.720465    0.546024   -1.711782
H      -3.516869   -2.210202   -1.262417
H      -0.861620   -1.526936   -2.666744
H      -1.655328   -3.107807   -2.721072
H      -2.433682   -1.705366   -3.468789
H      -1.045218   -2.747355    0.217821
