16

O       0.024174    1.357006   -0.076178
C       0.055659   -0.050444    0.167670
C      -1.348947   -0.599924    0.053081
O      -2.276326    0.124872    0.797718
C      -1.908211   -1.205784   -1.201583
O      -0.876582   -1.929383   -1.917196
C      -0.741191   -2.814197   -0.836707
N      -0.058697   -3.857462   -0.730507
C      -1.713375   -2.084686    0.026242
H      -0.063030    1.488209   -1.026692
H       0.745166   -0.568340   -0.505192
H       0.411549   -0.168089    1.195373
H      -1.981623    1.044893    0.731154
H      -2.799295   -0.908465   -1.736647
H       0.468370   -4.047037   -1.584152
H      -2.416210   -2.498905    0.733424
