21

C      -1.742630    0.273383    2.020504
C      -0.864225   -0.702718    1.282574
O      -0.051659   -0.172256    0.220251
C       0.606647   -0.716382    1.386136
C       1.421714    0.219021    2.275960
C       2.565283   -0.572952    2.915145
O       3.183718    0.253082    3.886324
C       1.956598    1.445054    1.508949
O       0.924548    2.305737    1.069499
H      -1.224683    1.221693    2.178840
H      -2.653313    0.470316    1.445598
H      -2.042490   -0.138696    2.990343
H      -1.344442   -1.645204    1.013963
H       1.097834   -1.665742    1.160482
H       0.796166    0.598216    3.091697
H       2.166727   -1.494269    3.370829
H       3.280901   -0.880066    2.133516
H       3.941074   -0.216170    4.247547
H       2.594797    2.024086    2.180424
H       2.582084    1.102871    0.667255
H       0.395239    1.780184    0.454451
