19

C       0.043917    1.539025   -0.181561
C      -0.029636    0.040527    0.155741
C      -1.418995   -0.518511    0.073358
C      -2.166650   -0.998441    1.098481
O      -3.400973   -1.415725    0.641712
C      -3.408256   -1.186148   -0.690477
O      -4.505126   -1.508630   -1.383460
C      -5.590273   -2.081989   -0.657894
C      -2.236086   -0.639442   -1.109767
H       1.074260    1.903407   -0.120182
H      -0.323030    1.734745   -1.193926
H      -0.568480    2.124328    0.511259
H       0.628307   -0.512455   -0.527218
H       0.365585   -0.127194    1.164106
H      -1.998755   -1.121515    2.154691
H      -5.959618   -1.396081    0.111357
H      -6.371950   -2.267316   -1.395149
H      -5.296485   -3.023582   -0.182665
H      -1.987021   -0.365089   -2.121447
