21

C      -0.088812    1.335352    0.147852
O       0.018648   -0.083451   -0.017175
C       0.653769   -0.488259   -1.137539
O       1.107061    0.271975   -1.956131
C       0.707829   -2.000505   -1.206220
C       1.418125   -2.516531   -2.457367
C       1.465562   -4.045310   -2.514006
C       2.171995   -4.566662   -3.758259
O       2.157903   -5.985544   -3.707742
H       0.901478    1.796184    0.190650
H      -0.644934    1.780487   -0.681269
H      -0.620228    1.486098    1.087683
H       1.197875   -2.361183   -0.293313
H      -0.321237   -2.376581   -1.149409
H       0.911468   -2.120162   -3.344902
H       2.433530   -2.104713   -2.487177
H       1.980479   -4.444000   -1.630866
H       0.449677   -4.459539   -2.493478
H       1.658572   -4.194086   -4.659983
H       3.203413   -4.178431   -3.789453
H       2.603398   -6.318610   -4.491968
