14

C      -0.036979    1.570133   -0.031986
C       0.005360    0.071368   -0.037925
C      -0.113551   -0.708936   -1.164638
F      -0.279620   -0.144850   -2.359172
C      -0.062202   -2.103922   -1.074689
N       0.100683   -2.729118    0.080728
N       0.220084   -2.012159    1.196732
C       0.174522   -0.687903    1.136597
O       0.301450   -0.024096    2.300204
H       0.889001    1.980265    0.383437
H      -0.174470    1.959520   -1.041187
H      -0.853805    1.930162    0.601573
H      -0.156037   -2.718285   -1.963398
H       0.406579   -0.703765    2.983022
