18

O       0.491854   -0.373680   -0.627257
C       0.243285    0.775422   -0.378559
C       1.328829    1.821960   -0.040422
N       2.674483    1.272715    0.012782
C       3.115697    0.865227    1.324038
C       2.587967   -0.363720    2.043995
C       3.987035   -0.343586    1.465480
C       1.182758    2.898585   -1.028145
C       1.010443    3.740218   -1.868585
H      -0.791433    1.176663   -0.413956
H       1.071012    2.225201    0.949641
H       2.738668    0.501383   -0.643275
H       3.369699    1.715645    1.952890
H       2.475063   -0.324362    3.122428
H       1.851354   -0.966688    1.526754
H       4.166517   -0.940596    0.576739
H       4.835305   -0.292222    2.138486
H       0.885488    4.501176   -2.599077
