21

C      -0.447148    1.467612    0.413587
O      -0.697845    0.104919    0.658864
C      -0.838055   -0.650630   -0.528265
C      -1.006996   -2.092829   -0.177023
C      -1.813475   -3.074336   -1.008703
C      -2.155368   -2.862286    0.432597
O      -1.302779   -3.631984    1.277493
C      -0.140989   -2.860986    0.831634
C       1.023720   -3.717957    0.383511
H      -0.346164    1.961571    1.382888
H       0.481338    1.616827   -0.160802
H      -1.271473    1.942132   -0.142624
H      -1.705548   -0.298016   -1.112446
H       0.051838   -0.511188   -1.169364
H      -2.484120   -2.605059   -1.722962
H      -1.394303   -4.023251   -1.329581
H      -3.119316   -2.553202    0.819605
H       0.160891   -2.186923    1.641125
H       0.755727   -4.360803   -0.459317
H       1.865131   -3.082841    0.085231
H       1.359384   -4.357152    1.206411
