22

C      -1.822702    0.188133    1.434764
C      -0.687684   -0.005928    0.447437
C       0.095444    1.170143   -0.090333
C       0.790417    0.134186    0.754517
C       1.413048    0.469708    2.112923
C       1.535118   -0.801229    2.966124
C       2.790394    1.106501    1.893564
O       0.657069    1.459409    2.823170
H      -1.706828    1.106075    2.014630
H      -2.775652    0.265400    0.899437
H      -1.913015   -0.655002    2.130878
H      -0.898265   -0.787368   -0.279717
H       0.316462    1.230178   -1.150633
H      -0.089680    2.125707    0.389908
H       1.414131   -0.567005    0.203234
H       2.150068   -1.555929    2.465949
H       1.992858   -0.568879    3.932692
H       0.549750   -1.247296    3.144428
H       2.686085    2.040560    1.335363
H       3.261067    1.329808    2.855312
H       3.446429    0.437144    1.329153
H      -0.068704    1.012322    3.268073
