21

C       0.471666    1.556478    0.283895
C      -0.130042    0.202799   -0.111223
C       0.555883   -0.418110   -1.310569
C       1.809419   -1.250064   -1.134825
C       0.522398   -1.898893   -1.557802
C      -0.277966   -2.957850   -0.771841
C      -0.535948   -3.663404   -2.118051
O      -1.120110   -4.658865   -2.430307
C       0.252847   -2.598135   -2.904657
H       1.534182    1.457115    0.528804
H       0.387401    2.279617   -0.534693
H      -0.038718    1.978649    1.155038
H      -0.067558   -0.487995    0.739261
H      -1.200416    0.326761   -0.324013
H       0.529036    0.199265   -2.207469
H       2.605722   -1.158950   -1.867006
H       2.155579   -1.428623   -0.120273
H       0.285796   -3.564843   -0.055696
H      -1.193192   -2.608432   -0.281613
H      -0.357093   -2.041540   -3.624777
H       1.127947   -2.997635   -3.428618
