20

C      -0.044406    1.473316    0.076028
C      -0.020433   -0.033312   -0.005364
C      -0.601641   -0.894126    1.056155
N       0.856272   -0.768877    0.943551
C       1.524948   -1.874033    0.224156
C       1.083110   -1.857749   -1.255396
C      -0.103031   -2.734383   -1.707691
O      -0.998332   -1.602178   -1.729069
C       0.073693   -0.688474   -1.380845
H       0.798698    1.913714   -0.468775
H      -0.968945    1.871945   -0.356343
H       0.019736    1.801801    1.116214
H      -1.027168   -0.436221    1.945847
H      -1.086188   -1.816236    0.746991
H       2.604071   -1.706848    0.298722
H       1.310016   -2.830380    0.714518
H       1.932388   -1.853930   -1.939634
H       0.004875   -3.178002   -2.705018
H      -0.429311   -3.512351   -1.005381
H       0.229222    0.050595   -2.174014
