13

C      -0.028341    1.521682    0.032243
C      -0.010543    0.024856    0.009325
C      -0.033832   -0.806841   -1.063580
O      -0.005399   -2.094178   -0.670871
N       0.037948   -2.151891    0.699551
C       0.035016   -0.897178    1.107194
C       0.075931   -0.565133    2.552459
O       0.113065   -1.369120    3.448175
H       0.864110    1.929501    0.518214
H      -0.064358    1.922716   -0.983615
H      -0.899252    1.907690    0.572124
H      -0.069150   -0.641701   -2.129289
H       0.069501    0.527902    2.755550
