18

N      -0.211001    1.295785    0.530621
C      -0.040234    0.111964    0.141001
O      -1.103133   -0.752083    0.227949
C      -0.921212   -2.050163   -0.197233
O       0.122372   -2.471045   -0.620263
C      -2.205621   -2.817209   -0.097119
C      -2.993052   -3.004629   -1.441872
C      -3.270745   -4.472670   -1.025365
C      -2.113181   -4.362435    0.002028
H       0.652054    1.824437    0.410523
H       0.854430   -0.355110   -0.271128
H      -2.843641   -2.373459    0.668332
H      -3.842749   -2.340581   -1.608857
H      -2.318315   -2.946555   -2.299840
H      -4.243119   -4.576804   -0.536303
H      -3.187140   -5.237604   -1.799761
H      -1.162308   -4.707482   -0.410146
H      -2.258085   -4.803511    0.990208
