22

C       0.124093    1.510271    0.110301
C      -0.090419    0.004974   -0.028871
N       0.623107   -0.535890   -1.168688
C       2.102319   -0.622116   -1.097764
C       2.003640   -2.032463   -1.682671
C       0.494219   -1.985296   -1.444206
O       2.585178   -2.405391   -2.918462
C       2.955662   -3.138694   -1.733687
C       4.383792   -3.008272   -1.271317
H       1.181669    1.745331    0.271711
H      -0.202127    2.029545   -0.795299
H      -0.437388    1.903901    0.963033
H       0.204448   -0.501130    0.914104
H      -1.157276   -0.204234   -0.174971
H       2.637308    0.120130   -1.698715
H       2.501318   -0.611651   -0.069205
H       0.179855   -2.580346   -0.570990
H      -0.143545   -2.234423   -2.299153
H       2.548008   -4.151740   -1.708166
H       4.710144   -1.965416   -1.299900
H       4.489727   -3.380286   -0.246263
H       5.051712   -3.593863   -1.911397
