13

O      -0.325830    0.310492   -0.409048
C       0.104184    1.149852    0.336917
C       1.373293    1.905964    0.056075
O       1.656192    2.987004    0.959648
C       1.919976    3.902141   -0.141773
C       1.706435    2.785480   -1.169757
O       2.913088    2.014422   -1.422709
C       2.668053    1.152910   -0.372711
O       3.312123    0.228362   -0.015512
H      -0.400398    1.444925    1.281046
H       1.171167    4.700274   -0.171024
H       2.929330    4.321085   -0.111569
H       1.104183    2.917126   -2.064140
