17

O       0.297846    1.333735    0.072649
C       0.043479   -0.022554   -0.044081
C      -1.341748   -0.671514    0.022968
C      -2.558041    0.162106   -0.272220
O      -2.299813    1.558621   -0.582798
C      -2.513828    0.634549   -1.667660
C      -1.249524    0.112394   -2.328914
C      -0.505052   -0.711402   -1.261241
O       0.058960   -1.920204   -1.676682
H      -0.532279    1.790376   -0.136478
H       0.811608   -0.603187    0.462573
H      -1.465879   -1.552664    0.641187
H      -3.481748   -0.006015    0.271988
H      -3.399481    0.845981   -2.260354
H      -1.515167   -0.563326   -3.147695
H      -0.641817    0.925066   -2.742213
H       0.975765   -1.754105   -1.922392
