18

C      -0.102289    1.497034   -0.036211
C      -0.065949   -0.021512   -0.020215
O      -1.394815   -0.500191    0.028537
C      -1.467430   -1.911418    0.038646
C      -2.901978   -2.325153    0.009870
N      -3.516431   -2.814450    1.077606
N      -4.765960   -3.037934    0.610772
C      -4.849926   -2.683890   -0.688310
N      -3.687026   -2.230807   -1.105869
H       0.913211    1.902717   -0.074128
H      -0.654641    1.856890   -0.908732
H      -0.595890    1.877641    0.862441
H       0.443785   -0.407264   -0.919878
H       0.503761   -0.386518    0.851899
H      -0.951462   -2.327322   -0.841520
H      -0.993442   -2.325942    0.941015
H      -5.468935   -3.422124    1.220465
H      -5.754406   -2.777398   -1.270635
