17

C       0.054846    1.540370    0.158190
C      -0.026399    0.020823    0.015881
O      -1.365610   -0.442430    0.084449
C       0.676871   -0.503576   -1.270415
C       0.792858   -2.039820   -1.251264
C      -0.050720   -0.046434   -2.454463
C      -0.702920    0.317080   -3.398463
H       1.095017    1.877530    0.222589
H      -0.408873    2.035721   -0.701574
H      -0.469395    1.855830    1.063908
H       0.477297   -0.448574    0.869289
H      -1.816624   -0.114859   -0.704469
H       1.686815   -0.072467   -1.294833
H       1.238497   -2.413287   -2.176326
H       1.418211   -2.358174   -0.411255
H      -0.197134   -2.485344   -1.131790
H      -1.247071    0.640347   -4.251398
