19

C      -0.311220    1.509209   -0.156628
C       0.033788    0.027273   -0.123422
C       1.405358   -0.413002   -0.687993
O       1.784416   -1.018855    0.569371
C       0.547184   -0.618571    1.193647
C       0.799667    0.291521    2.406838
O      -0.416105    0.716806    2.956347
C       1.620888   -0.451463    3.441504
O       1.215013   -0.596220    4.571272
H       0.522762    2.130561    0.185522
H      -0.553468    1.819779   -1.178395
H      -1.171859    1.724960    0.481860
H      -0.791547   -0.552328   -0.543926
H       1.384677   -1.146675   -1.501781
H       2.082372    0.406085   -0.963396
H      -0.039826   -1.483625    1.528961
H       1.410824    1.148913    2.075826
H      -0.395257    0.425955    3.883299
H       2.594156   -0.851457    3.104761
