15

C       0.021147    1.558383   -0.117929
O       1.491893    1.504664    0.104223
C       1.226890    0.321887    0.932208
C       1.307394   -1.275669    0.912395
N      -0.231978   -1.103090    1.125883
C       0.014665    0.023170    0.117512
C       0.589733   -0.715029   -1.109247
C       1.437165   -1.591521   -0.570490
H      -0.465827    2.164280    0.652764
H      -0.211805    1.923332   -1.122054
H       1.046264    0.657813    1.956686
H       1.835097   -1.866395    1.661616
H      -0.725060   -1.886369    0.690944
H       0.340210   -0.507890   -2.140106
H       2.092908   -2.320894   -1.022332
