18

C      -0.320484    1.324030    0.088964
O       0.273043    0.062357   -0.180719
C       0.791765   -0.554060    0.960278
C      -0.166666   -1.262937    1.954739
O      -1.077997   -0.932796    2.648560
N       0.491688   -2.550423    1.847261
C       0.354088   -2.895374    0.390244
C       1.404940   -1.937062    0.752905
C       2.873686   -2.225461    0.702090
H       0.417074    2.029825    0.500260
H      -0.690032    1.709257   -0.863368
H      -1.154018    1.235302    0.795945
H       1.472220    0.117253    1.510802
H       0.650492   -3.919790    0.189390
H      -0.534129   -2.564687   -0.139676
H       3.288941   -1.912395   -0.262180
H       3.410904   -1.691183    1.492087
H       3.063756   -3.295368    0.822540
