19

C      -0.103720    1.536428    0.026597
C       0.037951    0.015311    0.030893
C       0.707290   -0.503103   -1.252275
C       1.000593   -1.987807   -1.176778
O       1.036886   -2.748903   -2.116895
N       1.287148   -2.407643    0.113861
C       1.286344   -1.558564    1.230724
C       1.966348   -2.119279    2.448094
N       0.746183   -0.407251    1.243228
H       0.881310    2.012008   -0.025464
H      -0.697008    1.874310   -0.828997
H      -0.590261    1.871296    0.946137
H      -0.972426   -0.422645    0.087351
H       0.102971   -0.314478   -2.141974
H       1.669250    0.009613   -1.396296
H       1.616149   -3.358778    0.201661
H       1.490568   -3.056205    2.761560
H       3.020178   -2.339100    2.243324
H       1.897261   -1.397051    3.260383
