18

C      -0.149444    1.448618    0.662228
C       0.111673    0.016699    0.256566
C       0.328768   -0.382303   -1.181334
C       0.347459    0.608948   -2.219720
C       0.378947    1.418636   -3.109594
N       1.416435   -0.464834   -0.178005
C       2.547324    0.445521   -0.269532
C       3.765843   -0.295026   -0.806284
O       4.749242    0.253911   -1.227041
H       0.281534    1.655129    1.647836
H       0.257387    2.164520   -0.054010
H      -1.228195    1.620455    0.731172
H      -0.413293   -0.716187    0.869078
H      -0.031821   -1.357410   -1.501557
H       0.400313    2.130060   -3.898098
H       2.387396    1.338511   -0.887080
H       2.802952    0.786530    0.743078
H       3.674880   -1.402997   -0.758672
