16

O      -0.396493    0.546845   -0.730905
C       0.135919    1.084353    0.214453
C       1.299692    1.971081    0.106641
N       1.776381    2.862283    1.175122
C       2.563452    3.622665    0.082706
C       3.945766    3.018615    0.163543
C       3.875251    1.762503   -0.293047
C       2.514375    1.508393   -0.825926
C       1.819538    2.810594   -1.029305
H      -0.226015    0.929194    1.255726
H       0.987760    3.460492    1.419662
H       2.464645    4.704603    0.136828
H       4.769096    3.472226    0.698775
H       4.642438    1.002059   -0.224657
H       2.261438    0.660308   -1.449162
H       1.331810    3.145896   -1.936782
