19

O       0.364946    1.299322   -0.586961
C       0.115194    0.010212   -0.068720
C       0.948359   -1.021420   -0.824965
O       2.340964   -0.716963   -0.673067
C       2.995775   -0.201543   -1.733845
O       4.126748    0.175166   -1.669144
C       0.157966   -0.164941    1.478772
C      -1.192366   -0.929278    1.392538
C      -1.386873   -0.363172   -0.041383
H       1.251958    1.560776   -0.313417
H       0.795782   -2.031176   -0.433260
H       0.673415   -1.006627   -1.887040
H       2.376232   -0.178938   -2.650329
H       1.022102   -0.681692    1.901982
H       0.045067    0.806833    1.965498
H      -1.060454   -2.014341    1.399214
H      -1.953016   -0.672907    2.131419
H      -1.989146    0.547550   -0.052726
H      -1.751877   -1.040368   -0.818814
