14

N      -0.117434    1.288180    0.022229
C      -0.076447    0.034342    0.049795
C      -1.111720   -1.060346    0.022991
C      -0.782182   -2.046591   -1.093304
C       0.036064   -2.057670    0.158951
N       0.977485   -0.933760    0.151363
C       2.313456   -0.846747   -0.123451
O       2.906378    0.198635   -0.273283
H       0.826301    1.677646    0.054115
H      -2.068270   -1.042924    0.523059
H      -1.499028   -2.855259   -1.199002
H      -0.344771   -1.696142   -2.022909
H       0.151858   -2.882960    0.847805
H       2.799839   -1.841621   -0.161134
