21

C      -0.030859    1.535586   -0.047184
C       1.457244    2.002381   -0.027883
C       2.266610    0.698433    0.165564
C       1.399210   -0.346040   -0.558207
C       0.005606   -0.018249    0.014670
C      -0.098578   -0.541708    1.462034
C       1.134599   -0.216404    2.292577
O       2.312722   -0.998467    2.033045
C       2.320582    0.377769    1.651654
H      -0.605748    1.957214    0.782898
H      -0.522032    1.866434   -0.966908
H       1.729185    2.477290   -0.975446
H       1.657139    2.733861    0.761767
H       3.281701    0.768905   -0.237414
H       1.428476   -0.171373   -1.639250
H       1.719407   -1.370673   -0.360944
H      -0.803332   -0.454936   -0.577948
H      -0.978811   -0.106751    1.950713
H      -0.243065   -1.629234    1.466182
H       0.967299   -0.035266    3.354447
H       2.982734    1.006388    2.249370
