16

C      -0.038420    1.546079    0.014565
C       0.112549    0.053054    0.018942
N      -0.757827   -0.824835    0.852267
C       0.697455   -0.791441    1.089051
C       1.409041   -1.972754    0.442307
N       1.118470   -1.783415   -0.970832
C       0.423039   -0.648949   -1.293223
O       0.132359   -0.269073   -2.406858
H       0.871923    2.031948   -0.350153
H      -0.855293    1.837550   -0.652335
H      -0.250483    1.925136    1.019478
H      -1.216067   -0.238867    1.549289
H       1.084617   -0.375049    2.012089
H       2.488734   -1.938116    0.639423
H       1.017383   -2.927163    0.813779
H       1.336924   -2.466239   -1.677890
