12

O       0.088796    1.329820    0.175531
C       0.079084   -0.016647    0.000503
C       0.165556   -0.817722   -1.117217
C       0.096048   -2.164844   -0.636881
O       0.142204   -3.308045   -1.383012
C      -0.027738   -2.141360    0.727091
N      -0.036231   -0.797809    1.102171
H       0.176021    1.747042   -0.686250
H       0.265183   -0.489836   -2.141291
H       0.231015   -3.062859   -2.307583
H      -0.108551   -2.934843    1.448130
H      -0.115247   -0.444250    2.038627
