21

C      -0.053779    1.384630   -0.015794
O      -0.030537   -0.033208   -0.057220
C       0.616244   -0.558046   -1.160401
C       0.711624   -2.071138   -0.988912
O       1.273020   -2.660938   -2.148366
C       0.524174   -2.346094   -3.310778
C       0.427523   -0.832368   -3.505279
C      -0.450755   -0.433916   -4.679724
O      -0.132974   -0.251075   -2.328490
H       0.965887    1.797611   -0.026035
H      -0.613488    1.800689   -0.859920
H      -0.542203    1.664692    0.919624
H       1.632089   -0.127416   -1.272668
H       1.365731   -2.323838   -0.151058
H      -0.299004   -2.459376   -0.788145
H       1.042737   -2.816589   -4.151610
H      -0.493013   -2.766751   -3.240259
H       1.450044   -0.442239   -3.648152
H      -1.464424   -0.825559   -4.551418
H      -0.512548    0.654938   -4.751985
H      -0.041379   -0.821448   -5.617580
