15

C      -0.033910    1.584164    0.060082
C       0.014894    0.083244    0.075755
C      -1.259756   -0.815568    0.159858
C      -0.332935   -1.892552    0.729861
C       0.686303   -0.914328    1.118287
N       0.973547   -1.884187   -0.028894
C       0.855214   -0.723674   -0.909307
O       1.423605   -0.500930   -1.931602
H       0.972844    2.012834    0.047538
H      -0.552783    1.933045   -0.838836
H      -0.566777    1.977515    0.931360
H      -1.956711   -0.458638    0.922898
H      -1.794731   -1.016141   -0.774365
H      -0.589681   -2.841495    1.181871
H       1.381301   -0.794388    1.935940
