20

C       0.113512    1.634863    0.061700
C       0.033081    0.110272    0.026809
N       0.627369   -0.422582   -1.200916
C      -0.279212   -0.393229   -2.406208
C       0.708883   -0.892797   -3.474018
C       0.822237   -2.281918   -2.814564
O      -0.536039   -2.788164   -2.993126
C      -0.894122   -1.830132   -1.997386
C       0.483752   -1.889468   -1.314040
H       1.150987    1.963679   -0.044597
H      -0.466693    2.084959   -0.750541
H      -0.283203    2.020539    1.005978
H       0.603622   -0.303618    0.867524
H      -1.015158   -0.209511    0.175236
H      -0.870117    0.503328   -2.581772
H       0.300134   -0.983139   -4.481855
H       1.624895   -0.301171   -3.467215
H       1.598838   -2.984703   -3.109648
H      -1.889916   -1.942424   -1.573259
H       0.782463   -2.538006   -0.491285
