15

N      -0.014837    1.314977    0.007171
C       0.013101    0.048179    0.000741
C      -1.191054   -0.891173    0.003049
N      -0.658709   -2.259448   -0.006658
C       0.609720   -2.145144   -0.013392
C       1.595871   -3.283286   -0.024411
C       0.970125   -4.602354   -0.028263
N       0.531584   -5.669606   -0.031988
N       1.096670   -0.839728   -0.009903
H       0.920101    1.725357    0.003804
H      -1.816190   -0.729091    0.887252
H      -1.826230   -0.720535   -0.872344
H       2.245710   -3.196432   -0.905175
H       2.254502   -3.205784    0.850680
H       2.064900   -0.565369   -0.013836
