18

C      -0.236646    1.579469    0.137247
C       0.062712    0.091071    0.006801
C       0.680834   -0.506370   -1.253409
C       2.165565   -0.425688   -1.314018
C       2.963879    0.562240   -0.495004
C       2.394030    0.369527    0.917878
O       2.765903    0.907635    1.926862
C       1.242012   -0.608497    0.771284
N       1.537244   -1.467638   -0.449741
H       0.628821    2.206442   -0.092964
H      -1.042569    1.863939   -0.547682
H      -0.562271    1.822802    1.153846
H      -0.840914   -0.481692    0.236864
H       0.114093   -0.848194   -2.115304
H       2.617724   -0.837613   -2.210769
H       4.028972    0.304872   -0.496386
H       2.881284    1.608099   -0.805494
H       1.003461   -1.160318    1.677688
