14

O      -0.142677   -0.069330   -0.234692
C      -0.032889    1.098472   -0.031833
N      -1.016892    2.128300    0.134238
C       0.014059    3.009194    0.703614
C       1.003995    4.226680    0.652916
N       1.888069    3.046125    1.164310
C       0.693471    2.690925    2.052275
C       1.096085    2.225536    0.035752
H      -1.942321    1.940037    0.507224
H       1.299457    4.613348   -0.323018
H       0.899846    5.016069    1.401343
H       0.550886    3.381520    2.886162
H       0.697657    1.648275    2.381910
H       1.435210    2.505596   -0.962399
