20

C      -0.094131    1.578730   -0.085721
C       0.006007    0.047023    0.002678
C      -1.372534   -0.648490    0.114441
C      -2.151968   -0.284446    1.362109
C      -3.166081    0.834493    1.360386
C      -3.624047   -0.599588    1.448173
C       0.710732   -0.482850   -1.230136
O       1.702813   -1.164445   -1.230719
H       0.898880    2.034746   -0.145876
H      -0.660330    1.886028   -0.972851
H      -0.602931    1.984871    0.790921
H       0.620186   -0.238624    0.864121
H      -1.975630   -0.409228   -0.772630
H      -1.213006   -1.734556    0.095195
H      -1.591643   -0.411352    2.285604
H      -3.251270    1.459264    2.242802
H      -3.337968    1.361710    0.427661
H      -4.099089   -1.033208    0.573955
H      -4.020564   -0.959329    2.391012
H       0.217544   -0.190419   -2.190010
