16

C       0.002000    1.582122   -0.026365
C       0.007548    0.050932   -0.008729
C       0.758174   -0.510746    1.222574
C       2.163862   -0.114388    1.255486
N       3.274388    0.204394    1.265560
C      -1.425710   -0.532854   -0.010149
C      -2.186150   -0.158469   -1.199984
N      -2.773366    0.143090   -2.148262
H       1.022413    1.973496   -0.039838
H      -0.519712    1.957884   -0.910229
H      -0.502908    1.981772    0.861049
H       0.518358   -0.312761   -0.907154
H       0.277414   -0.163148    2.145747
H       0.710783   -1.605970    1.232898
H      -1.393251   -1.627267    0.045293
H      -1.972995   -0.185892    0.875457
