16

C       0.034041    1.450046    0.031432
C       0.022485   -0.003988    0.009407
C       0.024871   -1.209589   -0.010173
C      -0.013165   -2.627249   -0.032680
N       1.106891   -3.357692   -0.042829
N       0.660773   -4.636004   -0.060834
C      -0.693711   -4.740145   -0.052527
N      -1.325005   -5.983922   -0.133129
C      -1.175498   -3.448276   -0.034231
H       1.059552    1.835426    0.036662
H      -0.472254    1.867524   -0.846495
H      -0.471490    1.841204    0.921852
H       1.328470   -5.384421   -0.136742
H      -1.009727   -6.640606    0.571879
H      -2.330419   -5.894489   -0.072597
H      -2.204527   -3.130811   -0.008975
