16

C      -0.083763    1.485695   -0.093054
C       0.011286   -0.059002    0.044497
C       0.731086   -0.400704    1.285973
N       1.334979   -0.646208    2.239078
C      -1.348514   -0.624005    0.101437
N      -2.421957   -1.050253    0.087470
C       0.789752   -0.651500   -1.150763
C       0.599318   -2.048354   -1.599856
N       0.135296   -0.917194   -2.427893
H       0.923713    1.906244   -0.121515
H      -0.601454    1.735105   -1.021546
H      -0.625892    1.918292    0.749479
H       1.773297   -0.195206   -1.235275
H       1.443241   -2.599690   -2.001808
H      -0.146277   -2.652033   -1.090485
H      -0.876429   -0.827398   -2.349078
