17

C       0.102505   -1.161927    0.024390
C       0.020074    0.036671   -0.002038
C      -0.111838    1.473736   -0.024711
C      -1.021803    2.114454    1.031001
C      -1.046976    3.610501    0.613829
C      -0.542224    3.609467   -0.830026
C       0.810045    2.968666   -1.070627
O       1.191110    2.173663    0.054060
C      -0.430805    2.195447   -1.366136
H       0.185156   -2.220704    0.043991
H      -2.017647    1.661698    0.980020
H      -0.622351    1.953860    2.035201
H      -2.055845    4.027182    0.676530
H      -0.401119    4.212622    1.258991
H      -0.835489    4.397827   -1.514803
H       1.597290    3.367330   -1.699131
H      -0.852485    1.771370   -2.265749
