19

C      -0.085444    1.605505    0.169545
C      -0.018247    0.070920    0.047066
C       0.788056   -0.613706    1.180987
C       2.255482   -0.240779    1.189176
C       2.774242    0.906223    2.024348
C       3.090299   -0.515238    2.414489
C      -1.371902   -0.492648   -0.007642
N      -2.439298   -0.935622   -0.035743
H       0.921597    2.026022    0.146272
H      -0.663242    2.036075   -0.651986
H      -0.561725    1.898168    1.109916
H       0.463980   -0.179525   -0.907532
H       0.331927   -0.360182    2.145800
H       0.685900   -1.699223    1.066323
H       2.757966   -0.396563    0.236737
H       3.571888    1.520842    1.621756
H       2.062406    1.449946    2.636519
H       2.588128   -0.924265    3.285186
H       4.103018   -0.876592    2.276413
