15

O      -0.073720   -0.042811   -0.296765
C      -0.016501    1.124734   -0.048931
O      -1.131810    1.905591    0.132606
C      -0.684888    3.206916    0.568966
C      -0.041435    3.036130    1.968751
C       1.384192    2.814004    1.435929
O       1.572033    4.053080    0.680799
C       0.638625    3.459229   -0.240271
C       1.172977    2.048034    0.070648
H      -1.508632    3.907312    0.462116
H      -0.071571    3.940654    2.578128
H      -0.485816    2.200266    2.512280
H       2.197642    2.569565    2.115575
H       0.593674    3.913824   -1.228122
H       2.085360    1.717241   -0.415804
