18

N       0.268351    0.871880   -0.768628
C      -0.000115    0.038670    0.268581
O       0.681202   -0.047083    1.276011
C      -1.223276   -0.804692    0.076274
C      -1.983531   -1.306672    1.281420
C      -1.229106   -2.279744    0.408461
C      -1.972830   -2.939314   -0.741245
C      -2.686883   -1.754648   -1.430107
O      -1.934765   -0.576834   -1.117469
H       1.074454    1.470640   -0.714772
H      -0.339006    0.894098   -1.569509
H      -1.536117   -1.069222    2.239066
H      -3.067579   -1.280796    1.248119
H      -0.334037   -2.742058    0.805295
H      -1.252071   -3.410785   -1.416933
H      -2.686690   -3.705913   -0.425228
H      -2.734110   -1.844890   -2.518610
H      -3.712838   -1.644570   -1.055684
