15

N       0.041536    1.481187    0.138036
C       0.047562    0.069457    0.020952
C      -1.037343   -0.791658   -0.019984
N      -0.606578   -2.116644   -0.050294
C       0.760683   -2.101020   -0.039204
C       1.186174   -0.782647    0.009365
N       2.566190   -0.880578    0.025900
C       2.856324   -2.227241   -0.001610
N       1.786304   -3.000632   -0.045284
H       0.477162    1.926080   -0.664667
H      -0.906234    1.835174    0.200180
H      -2.089947   -0.556453   -0.024362
H      -1.198910   -2.926457   -0.038682
H       3.235344   -0.136581    0.115010
H       3.876078   -2.582004    0.007382
