17

O       1.475188    1.529868   -0.606926
C       0.507253    0.774427    0.069779
C      -0.045229   -0.309763   -0.840534
O       0.356292   -0.449573   -1.971092
C       1.082210    0.153534    1.331986
C       1.123263    0.944706    2.604106
C       0.175453   -0.239281    2.497102
C      -1.244359   -0.039816    2.436754
C      -2.438204    0.105762    2.388782
H       1.528285    1.142923   -1.495789
H      -0.351016    1.405364    0.357898
H      -0.830339   -0.958745   -0.407753
H       1.915426   -0.517794    1.145126
H       1.983219    0.838685    3.254937
H       0.677711    1.932863    2.593922
H       0.477034   -1.135784    3.030692
H      -3.490660    0.243012    2.356146
