17

C      -0.132903    1.512640    0.011395
C       1.405702    1.511181   -0.207726
C       1.447510    0.147271    0.529501
C      -0.066671   -0.023132    0.240171
N       2.377759   -0.873362    0.091312
C       2.588790   -1.428802   -1.116367
N       3.549012   -2.322774   -1.022895
N       3.931104   -2.307539    0.281969
N       3.243017   -1.450463    0.957759
H      -0.413412    2.047625    0.921916
H      -0.755172    1.870063   -0.809795
H       1.659998    1.398875   -1.265463
H       1.999295    2.324284    0.213487
H       1.640606    0.273042    1.595104
H      -0.678313   -0.465974    1.028013
H      -0.233812   -0.574584   -0.689372
H       2.046651   -1.170063   -2.010550
