25

C      -0.116870    1.627238    0.088189
C       0.005187    0.104146   -0.015247
C      -1.356151   -0.588993   -0.136517
C      -1.327631   -2.133147   -0.040263
C      -0.422359   -2.745744   -1.111679
O      -0.730731   -2.528224    1.207851
C      -2.767506   -2.644607   -0.090306
C      -3.436656   -3.181125   -1.332382
C      -3.111729   -4.107720   -0.188437
H       0.866557    2.101238    0.168246
H      -0.617972    2.048630   -0.790865
H      -0.699505    1.920119    0.969129
H       0.631603   -0.147572   -0.879197
H       0.519793   -0.292763    0.866409
H      -2.011096   -0.220207    0.667048
H      -1.845377   -0.302899   -1.077113
H       0.616694   -2.481505   -0.905232
H      -0.486575   -3.836818   -1.108772
H      -0.680325   -2.379528   -2.108778
H      -1.364381   -2.337071    1.907605
H      -3.424007   -2.066664    0.559437
H      -4.472944   -2.915077   -1.509914
H      -2.844639   -3.274363   -2.235570
H      -2.302094   -4.815861   -0.321941
H      -3.925554   -4.481163    0.423478
