21

C      -0.066038    1.486912    0.034383
C       1.280610    0.809387    0.012635
C       2.178166    0.843204    1.252344
C       1.869481   -0.274452    2.263035
C       0.360478   -0.402852    2.514556
C      -0.344305   -0.814627    1.236149
C      -0.802314   -2.204828    1.080507
O      -1.733183   -1.160284    1.376022
C       0.006335   -0.021336    0.015141
H      -0.370432    1.971962    0.956573
H      -0.416890    1.984912   -0.862632
H       1.807505    0.843912   -0.935696
H       3.225583    0.770521    0.941953
H       2.077648    1.815613    1.750957
H       2.245786   -1.231387    1.878676
H       2.398521   -0.083381    3.202867
H       0.147087   -1.136788    3.297274
H      -0.044026    0.555485    2.866700
H      -0.889430   -2.639495    0.084640
H      -0.634082   -2.925371    1.881112
H      -0.272402   -0.498082   -0.919379
