16

C      -0.003167    1.630952   -0.069604
C       0.018986    0.108931   -0.043845
C       0.745734   -0.643866   -1.173339
O       2.112997   -0.245211   -1.104865
C       1.683658   -1.342868   -0.254229
C       2.422102   -2.636734   -0.310346
C       1.007443   -0.628338    0.919583
O       1.097084   -0.707630    2.108613
H       0.981906    2.020290   -0.338018
H      -0.735207    2.005813   -0.792125
H      -0.271153    2.022364    0.916355
H      -0.981827   -0.303840    0.139625
H       0.364010   -0.989464   -2.127063
H       2.626751   -2.916542   -1.346980
H       3.375805   -2.556610    0.220855
H       1.838940   -3.431434    0.164706
