15

C      -0.298273    1.530304    0.016509
C      -0.005449    0.060959   -0.021564
C       0.139293   -0.643262   -1.149662
O       0.405538   -1.977514   -1.212876
C       0.549671   -2.722495   -0.063999
N       0.796600   -3.960455   -0.074928
N       0.403733   -2.014066    1.111195
C       0.132496   -0.656497    1.256057
O       0.026752   -0.148916    2.353077
H       0.489543    2.067919    0.553478
H      -0.381309    1.944556   -0.991411
H      -1.231434    1.724566    0.554446
H       0.059808   -0.225581   -2.146431
H       0.869470   -4.307226   -1.028109
H       0.507492   -2.551762    1.960818
