20

C      -0.013105    1.501057    0.136653
C      -0.092101   -0.029033    0.114968
C       0.556702   -0.632126   -1.126763
C       2.101348   -0.602980   -1.308512
N       2.183957   -2.092730   -1.559962
C       1.691910   -2.727004   -0.346331
C       0.666328   -2.149273   -1.258739
C      -0.222172   -2.999473   -2.071216
O      -1.307824   -2.648818   -2.468083
H       1.026452    1.847232    0.120750
H      -0.519425    1.934812   -0.732459
H      -0.484295    1.909227    1.035580
H       0.380472   -0.432660    1.019236
H      -1.141261   -0.347451    0.146456
H       0.064131   -0.235508   -2.019325
H       2.448133   -0.058418   -2.187370
H       2.688371   -0.292246   -0.436949
H       1.804500   -3.807695   -0.350895
H       1.863985   -2.256626    0.619567
H       0.193335   -4.005498   -2.305919
