21

C      -0.212633    1.539982   -0.010817
C       0.031491    0.032956    0.004070
C       0.907495   -0.516628   -1.164982
C       1.986971   -1.319763   -0.370362
O       1.208926   -1.822178    0.728500
C       0.825521   -0.538760    1.234493
C       2.168686    0.190028    1.333559
C       2.494783    1.252528    2.328613
C       2.887642   -0.306065    0.322874
H       0.729387    2.096304   -0.046151
H      -0.798355    1.829899   -0.889379
H      -0.769303    1.866974    0.875146
H      -0.932823   -0.484155   -0.004506
H       0.334637   -1.180394   -1.817120
H       1.346273    0.274467   -1.779049
H       2.468118   -2.136675   -0.907275
H       0.246628   -0.640836    2.153745
H       2.423567    0.867733    3.354058
H       3.506416    1.641312    2.181954
H       1.796123    2.095580    2.264325
H       3.871316   -0.003851   -0.012565
