20

C       0.034795    1.435445    0.177055
C      -0.032941   -0.092910    0.007228
C      -1.477956   -0.596981   -0.052570
O      -2.114013   -0.231651    1.175811
C      -3.417923   -0.564702    1.304013
C      -3.933532   -0.119944    2.648387
N      -4.033349   -1.165573    0.371059
C       0.675766   -0.486932   -1.276237
O       1.643635   -1.198136   -1.343327
H       1.069378    1.773084    0.284123
H      -0.402575    1.947359   -0.688174
H      -0.524577    1.736784    1.064743
H       0.487480   -0.589304    0.832039
H      -2.025852   -0.154219   -0.892854
H      -1.520599   -1.684525   -0.173140
H      -4.985509   -0.382195    2.769439
H      -3.352357   -0.588263    3.448513
H      -3.819112    0.962920    2.757015
H      -5.000956   -1.338650    0.632754
H       0.228568   -0.039308   -2.196518
