22

C       0.024345    1.673598   -0.048317
C       0.268153    0.165093    0.042799
C       0.475359   -0.475963   -1.338844
C       0.671036   -1.981185   -1.306068
C       1.555720   -2.654104   -2.330136
N       1.935081   -2.651832   -0.938833
C       3.093650   -1.864650   -0.540500
C      -0.514094   -2.793056   -0.880933
O      -1.633354   -2.361847   -0.754683
H       0.871038    2.188201   -0.517113
H      -0.867488    1.892966   -0.645538
H      -0.123437    2.112338    0.943161
H       1.143713   -0.027367    0.674614
H      -0.584067   -0.316400    0.532174
H      -0.409810   -0.280238   -1.955574
H       1.318195    0.002242   -1.849128
H       1.287887   -3.616985   -2.759919
H       2.066554   -1.976067   -3.014088
H       3.221080   -0.923402   -1.095148
H       3.027495   -1.634581    0.526638
H       3.988738   -2.473837   -0.700497
H      -0.267397   -3.862713   -0.699948
