16

C      -0.126566    1.527675    0.023470
C      -0.024677    0.076624   -0.009268
C       0.069082   -1.122244   -0.041820
C       0.157446   -2.574126   -0.074525
C      -1.217565   -3.258023    0.152002
C       0.767513   -3.075620   -1.385238
O       0.993311   -2.415410   -2.362319
C       1.081675   -4.525482   -1.382216
N       1.334884   -5.653838   -1.372478
H       0.523135    1.953706    0.795501
H       0.168130    1.961860   -0.937808
H      -1.151982    1.849297    0.234912
H       0.832405   -2.927939    0.719828
H      -1.120910   -4.346930    0.138483
H      -1.613039   -2.955039    1.123206
H      -1.926145   -2.951959   -0.621424
