16

C       0.107006    1.538544    0.129306
C      -0.033276    0.015668   -0.038993
C       0.664429   -0.509358   -1.255836
C       0.151558   -0.933995   -2.437903
O       1.127376   -1.314658   -3.280719
N       2.351321   -1.150073   -2.664485
C       2.077185   -0.671792   -1.463040
C       3.110828   -0.386021   -0.535260
C       3.952154   -0.132412    0.286205
H       1.159216    1.826157    0.208219
H      -0.324413    2.068565   -0.725259
H      -0.406200    1.874378    1.035347
H       0.373357   -0.482863    0.848647
H      -1.093343   -0.254972   -0.088884
H      -0.855903   -1.025333   -2.814150
H       4.708958    0.086251    0.998892
