18

C       0.168369    1.449074    0.455084
C      -0.130895    0.030095    0.029042
C       0.365356   -0.594631   -1.258810
C       1.219563    0.163932   -2.267195
C       2.080590   -0.724287   -3.042668
C       2.780501   -1.473279   -3.669520
N       0.893506   -0.991159    0.027581
C       2.180005   -0.919630    0.513183
O       2.489315   -0.430654    1.575296
H       1.119198    1.816598    0.064961
H      -0.630171    2.116330    0.114961
H       0.225422    1.504939    1.545120
H      -1.096770   -0.334954    0.378490
H      -0.274835   -1.343130   -1.724245
H       0.551284    0.710467   -2.945597
H       1.832581    0.917073   -1.761069
H       3.405254   -2.126969   -4.226467
H       2.897827   -1.432880   -0.154072
