18

C      -0.024462    1.550814   -0.017354
C      -0.139500    0.046407    0.020226
C      -0.493419   -0.690688   -1.286469
N      -0.730665   -2.093265   -0.882174
C      -0.856819   -2.060051    0.380856
O      -0.231521   -2.970039    1.203195
C       1.013146   -2.194685    1.337821
C       0.608049   -0.690034    1.211155
C      -0.877638   -0.701720    1.073705
H       0.821912    1.865539   -0.638282
H      -0.930042    2.000182   -0.441001
H       0.119837    1.973358    0.981444
H      -1.359181   -0.214031   -1.768352
H       0.318574   -0.707547   -2.023021
H       1.416794   -2.397447    2.333305
H       1.709190   -2.535301    0.565619
H       1.106175   -0.006548    1.891659
H      -1.633592   -0.375280    1.777044
