17

C      -0.024363    1.556701    0.084251
C       0.002565    0.052949   -0.013096
C       0.663694   -0.710827   -1.217472
C      -0.368274   -1.858775   -0.954305
N       0.072943   -2.658526    0.212146
C       0.502696   -1.957437    1.191303
N       0.443483   -0.580598    1.245408
C      -1.270192   -0.731606   -0.441929
O      -2.429699   -0.446606   -0.504439
H       0.975778    1.960805    0.280964
H      -0.388919    1.992257   -0.849062
H      -0.690690    1.872587    0.892668
H       0.484409   -0.202105   -2.166982
H       1.715184   -0.983735   -1.109006
H      -0.695536   -2.506295   -1.765805
H       0.913290   -2.448123    2.072908
H       1.155007   -0.098655    1.780269
