16

O      -0.183591   -0.077786    0.002422
C      -0.064751    1.120451    0.006461
C       1.246168    1.871491   -0.001715
C       2.467535    0.953792   -0.017228
C       3.784669    1.754441   -0.024878
C       4.962159    0.895716   -0.039699
C       5.917308    0.166830   -0.051981
C      -1.267917    1.986097    0.020610
N      -2.196516    2.674986    0.031669
H       1.231959    2.547222   -0.869458
H       1.247631    2.538471    0.872911
H       2.443968    0.293138    0.854164
H       2.428447    0.302016   -0.894733
H       3.806789    2.419663   -0.898538
H       3.822381    2.410746    0.854970
H       6.767905   -0.468658   -0.063136
