14

C       0.010720    1.442401   -0.045044
O       0.014353    0.004076   -0.020490
C       0.599656   -0.583462   -1.049934
O       1.118794   -0.022109   -1.987481
C       0.546439   -2.126997   -0.922624
O       0.035496   -2.699387   -0.000694
N       1.171218   -2.694637   -2.023322
C       1.342611   -4.049582   -2.300194
O       0.969685   -4.962168   -1.618391
H       1.034561    1.822941   -0.061848
H      -0.520003    1.804096   -0.928735
H      -0.501077    1.748308    0.865864
H       1.535136   -2.019550   -2.685587
H       1.881941   -4.177926   -3.259391
