18

C      -0.095337    1.537788    0.032388
C       0.050591    0.020651    0.008618
C       1.081602   -0.598339   -0.959247
C       2.401994   -0.079901   -0.374900
O       2.143921   -0.082203    1.046611
C       0.813330   -0.604548    1.194608
C       0.841898   -2.078274    0.774830
O       1.002411   -1.999141   -0.659814
H       0.835447    2.027163    0.328752
H      -0.391391    1.923148   -0.949113
H      -0.868112    1.836623    0.748020
H      -0.919283   -0.461878   -0.144260
H       0.940312   -0.455746   -2.030443
H       3.228488   -0.758188   -0.611148
H       2.661458    0.934047   -0.704086
H       0.466328   -0.399540    2.207287
H       1.691226   -2.606379    1.221439
H      -0.085022   -2.614662    1.016094
