20

C      -0.110537    1.654417   -0.062918
C      -0.013577    0.143466   -0.143742
C       0.798670   -0.621595   -1.227385
C       2.044629   -0.174003   -0.431239
N       1.079421   -0.577516    0.702241
C       0.778249   -1.786329   -0.218791
C      -0.480569   -2.589403    0.069967
C      -0.580544   -3.162687    1.468513
O      -1.316621   -2.779795   -0.784307
H       0.800272    2.181805   -0.352688
H      -0.916905    1.999470   -0.718661
H      -0.363649    1.954306    0.959463
H      -1.001243   -0.278624    0.061489
H       0.641024   -0.656808   -2.309164
H       2.936379   -0.804956   -0.480548
H       2.321954    0.879306   -0.424615
H       1.631161   -2.477294   -0.250709
H      -0.477375   -2.360805    2.206961
H      -1.529532   -3.685342    1.593242
H       0.248589   -3.857534    1.647785
