23

C       0.102704    1.508602    0.198406
C       0.005491   -0.010797    0.120604
O       0.580615   -0.526912    1.309832
C      -1.448023   -0.492368   -0.044363
C      -1.536491   -1.981110   -0.353276
O      -0.886890   -2.800662    0.667108
C      -2.143080   -3.397978    1.057230
C      -2.880191   -2.735924   -0.127082
C      -4.164741   -1.970290    0.153579
H       1.139324    1.804130    0.381793
H      -0.234080    1.974676   -0.732819
H      -0.508464    1.888494    1.023676
H       0.581033   -0.351639   -0.760494
H       0.324834   -1.458983    1.364954
H      -1.986996   -0.252976    0.879532
H      -1.931997    0.056520   -0.862715
H      -1.070543   -2.178131   -1.327662
H      -2.086334   -4.491695    1.063637
H      -2.469070   -3.050643    2.046793
H      -3.050801   -3.453659   -0.934289
H      -4.047804   -1.260664    0.977752
H      -4.497202   -1.411720   -0.727576
H      -4.968570   -2.663017    0.425067
