18

C       0.805704    1.505066   -0.015990
C       0.029997    0.189957    0.015197
C       0.543515   -0.893396   -0.980648
C       1.273113   -1.622052    0.197872
O       1.048120   -3.003891    0.370769
C       2.707333   -1.320687    0.266823
N       3.846740   -1.126833    0.299643
C       0.403970   -0.764495    1.180347
O       0.998430   -0.150850    2.283448
H       1.886822    1.345136    0.018483
H       0.572983    2.054668   -0.933842
H       0.538321    2.132377    0.838377
H      -1.041218    0.393386   -0.052724
H      -0.247988   -1.539837   -1.365526
H       1.170132   -0.546987   -1.804236
H       1.577308   -3.490733   -0.271677
H      -0.446808   -1.400256    1.461642
H       1.199452   -0.820417    2.945792
