17

N       0.025470    1.368437    0.211814
C      -0.012481    0.121558   -0.003601
C      -1.339366   -0.600545   -0.092251
C      -1.622866   -1.344660   -1.380520
C      -0.830736   -2.271486   -1.913667
C       0.504148   -2.669252   -1.332604
C       1.452833   -1.489793   -1.109797
O       1.133133   -0.636367   -0.003962
H       1.000551    1.670233    0.281901
H      -1.374050   -1.312870    0.746153
H      -2.108353    0.150055    0.089873
H      -2.566220   -1.109738   -1.865193
H      -1.145542   -2.773668   -2.824471
H       0.373833   -3.197109   -0.377033
H       1.009716   -3.370662   -2.005156
H       2.453393   -1.860308   -0.869967
H       1.520975   -0.886635   -2.024897
