18

C       0.014889   -1.223863    0.049157
C      -0.011240   -0.020159    0.039102
C      -0.062096    1.410888    0.034667
C      -1.087790    2.280347    0.769489
N      -0.669490    3.413382   -0.137592
C       0.723730    3.619318    0.373972
C       1.310104    2.254827   -0.025923
C       1.129492    2.340141   -1.563284
C      -0.354360    2.326793   -1.208869
H       0.039333   -2.285267    0.057568
H      -2.111649    1.970840    0.544045
H      -0.983440    2.476570    1.840832
H       1.212195    4.453356   -0.137262
H       0.706238    3.828270    1.445933
H       2.224103    1.887988    0.436995
H       1.559317    3.197297   -2.089072
H       1.395166    1.409252   -2.070590
H      -1.172281    2.165998   -1.908090
