18

C      -0.056235    1.461708    0.060192
C      -0.000791   -0.024587   -0.010363
C      -0.018341   -0.874173   -1.041829
C       0.062620   -2.259776   -0.366314
O      -0.001494   -3.415306   -1.138890
C      -0.957562   -2.070537    0.793175
C       0.088361   -0.974179    1.202213
C       1.179807   -1.982787    0.706150
H       0.829199    1.872269    0.562931
H      -0.117077    1.907804   -0.936660
H      -0.925114    1.802418    0.638235
H      -0.090133   -0.688109   -2.105377
H       0.671363   -3.358613   -1.825610
H      -1.963388   -1.738562    0.527219
H      -0.987291   -2.921065    1.481188
H       0.112220   -0.542965    2.201696
H       1.336955   -2.825749    1.386302
H       2.129197   -1.567274    0.358867
