17

O      -0.226648    1.555254    0.240986
C      -0.033808    0.180333    0.063984
C       0.416231   -0.705462    1.268309
C      -0.755888   -1.701057    0.957727
C      -2.026731   -1.355174    1.764233
O      -2.348301   -0.264827    0.876844
C      -1.328470   -0.638593   -0.060331
C      -0.442630   -3.068488    0.658002
C      -0.179041   -4.216088    0.409631
H       0.633291    1.986988    0.236632
H       0.597448   -0.039021   -0.811270
H       1.416383   -1.133196    1.189836
H       0.302241   -0.211149    2.236001
H      -2.793259   -2.139176    1.734073
H      -1.872203   -1.026482    2.798530
H      -1.728598   -0.860577   -1.052928
H       0.049752   -5.229072    0.188354
