21

O       0.023779    1.535314   -0.004771
C       0.054716    0.115066    0.014841
C      -1.353866   -0.485749    0.081671
C      -1.405486   -2.018494    0.078507
O      -0.713143   -2.478836   -1.077717
C      -0.717249   -2.639691    1.315342
O      -1.340530   -2.305396    2.547590
C      -2.868683   -2.492273   -0.002847
O      -2.929950   -3.881025   -0.329955
H      -0.383756    1.806924   -0.833362
H       0.589464   -0.294529   -0.851651
H       0.635513   -0.145014    0.906261
H      -1.868577   -0.099027    0.969694
H      -1.920141   -0.128625   -0.788496
H      -1.089266   -3.349771   -1.269522
H      -0.775574   -3.730948    1.230984
H       0.349437   -2.383765    1.306749
H      -1.099934   -1.401750    2.772628
H      -3.391710   -2.275431    0.934793
H      -3.373069   -1.969562   -0.821401
H      -2.852583   -4.386460    0.484894
