15

O       0.080003    1.384909   -0.111221
C       0.040593   -0.021863   -0.054115
C       0.422999   -0.626714    1.317466
O      -0.586614   -0.080477    2.174388
C      -1.725208   -0.566945    1.466911
C      -1.263676   -1.847030    0.794560
O       0.098695   -1.998334    1.178065
C      -1.380183   -0.587992   -0.025486
O      -2.274570   -0.438724   -1.062573
H      -0.253619    1.695740    0.741374
H       0.646083   -0.416699   -0.871833
H       1.416791   -0.479076    1.731016
H      -2.685984   -0.384570    1.924262
H      -1.827660   -2.760587    0.678375
H      -2.332254    0.506493   -1.252077
