21

C       0.151106    1.453721    0.231741
C      -0.017693   -0.063001    0.088781
C      -1.498726   -0.465454   -0.068103
O      -2.291356   -0.128492    1.058937
C       0.771661   -0.615344   -1.065612
C       1.107443   -2.089805   -1.376393
C       2.390971   -1.593295   -2.129573
C       1.973720   -0.157302   -1.790700
O       0.664683    0.040911   -2.344443
H       1.196338    1.719250    0.415342
H      -0.172109    1.965936   -0.679271
H      -0.431610    1.828805    1.078405
H       0.348323   -0.549399    1.003227
H      -1.900000   -0.022984   -0.992308
H      -1.573938   -1.553298   -0.168639
H      -2.444258    0.820494    1.042487
H       1.344732   -2.675857   -0.484879
H       0.361057   -2.618593   -1.973488
H       3.314068   -1.904107   -1.634567
H       2.455838   -1.815457   -3.197223
H       2.590608    0.725781   -1.665769
