18

C       0.104972    1.508289    0.396601
C       0.188813    0.023133    0.133127
C       1.493460   -0.619529   -0.276374
C       0.911731   -0.910417    1.080359
N       1.585811   -0.396015    2.233836
C       0.955464   -0.151180    3.405156
O      -0.237933   -0.253303    3.624834
C       1.911321    0.293004    4.516321
O       3.104149    0.384962    4.375700
H       1.026113    1.884740    0.850638
H      -0.057235    2.059836   -0.535286
H      -0.720854    1.737644    1.077287
H      -0.705942   -0.407711   -0.307277
H       1.496277   -1.413683   -1.014134
H       2.368254    0.023550   -0.310084
H       0.457367   -1.884484    1.240004
H       2.593709   -0.324485    2.250372
H       1.386891    0.516121    5.466507
