18

C       0.007591    1.482009    0.079918
C       0.035836   -0.011867   -0.034169
C       0.684933   -0.929955   -1.109066
C       0.107222   -1.858629   -0.017247
N       0.608382   -0.917295    1.063467
C      -1.208026   -0.979375   -0.001137
N      -2.041229   -0.882242    1.169941
C      -2.041048   -1.034651   -1.200665
N      -2.713697   -1.098403   -2.138470
H       1.021464    1.888999    0.151375
H      -0.475566    1.920197   -0.798826
H      -0.553930    1.782528    0.968988
H       0.249336   -0.953525   -2.111189
H       1.776401   -0.887493   -1.144080
H       0.181840   -2.942005    0.081874
H       1.630639   -0.879531    1.023321
H      -2.715046   -1.639991    1.203243
H      -1.435061   -0.943678    1.983365
