20

C       0.030212    1.586932    0.074646
C       0.057881    0.083564    0.083436
C      -1.200544   -0.790692   -0.105326
N      -0.553647   -1.895132    0.680032
C       0.900272   -1.840869    0.275187
C       0.370488   -0.902454    1.291781
C       1.089048   -0.731082   -0.728487
C       1.340189   -0.769173   -2.202267
C       2.405419   -0.250490   -1.248381
H       1.000847    2.009575    0.355103
H      -0.224373    1.967226   -0.922189
H      -0.718617    1.972088    0.774870
H      -2.066099   -0.432835    0.459864
H      -1.498843   -1.050762   -1.127909
H       1.471326   -2.751414    0.404304
H       0.536415   -0.783757    2.354943
H       1.502799   -1.731145   -2.677926
H       0.832922   -0.043393   -2.831218
H       2.606936    0.816312   -1.248972
H       3.283941   -0.865447   -1.079293
