23

C      -0.435437    1.229731   -0.131103
C       0.347078   -0.077643    0.014781
C       0.637404   -0.733787   -1.327328
O       1.376420   -1.925652   -1.097063
C       1.721566   -2.594028   -2.266232
C       2.129686   -4.034772   -2.125913
C       0.831949   -3.671246   -2.829981
C      -0.488703   -4.002054   -2.176385
O       0.833627   -3.717733   -4.234653
H       0.119214    1.963134   -0.726774
H      -1.400258    1.065548   -0.623602
H      -0.634493    1.679141    0.845982
H       1.299179    0.103018    0.526744
H      -0.211321   -0.786987    0.636713
H      -0.299278   -0.960913   -1.859906
H       1.218337   -0.052545   -1.971375
H       2.255573   -1.991979   -3.002829
H       2.959004   -4.382994   -2.731336
H       2.059804   -4.465728   -1.132789
H      -0.458763   -3.769991   -1.109257
H      -1.295210   -3.424227   -2.639006
H      -0.729258   -5.066371   -2.288493
H       0.786609   -4.643471   -4.499567
