22

C      -1.025352    1.187592   -0.353045
C      -0.081688    0.030714   -0.000381
C       0.542898   -0.591197   -1.232389
C       1.015971   -1.981996   -1.381497
C       0.149948   -2.982980   -0.627826
C      -1.049796   -2.397779   -1.422425
N      -0.160454   -1.462810   -2.204753
O       0.506109   -4.295362   -0.983386
C      -0.301817   -5.274219   -0.369766
H      -0.499393    1.965239   -0.917013
H      -1.859017    0.841403   -0.971981
H      -1.439180    1.648719    0.548728
H       0.732855    0.399337    0.636246
H      -0.615249   -0.712626    0.599240
H       1.146676    0.125487   -1.789799
H       1.965278   -2.249484   -1.834932
H       0.120625   -2.888061    0.469493
H      -1.469251   -3.138298   -2.106793
H      -1.861003   -1.910983   -0.872230
H      -0.248246   -5.212336    0.728797
H      -1.357729   -5.187253   -0.667413
H       0.072081   -6.249792   -0.688717
