17

C       0.094768    1.568233    0.174451
C      -0.036137    0.046218    0.149703
C      -1.431713   -0.482827   -0.081814
N      -2.375844    0.379258   -0.235868
O      -3.671033   -0.104649   -0.450754
C      -3.989423   -1.452150   -0.506210
N      -5.186556   -1.828768   -0.704506
C      -2.890888   -2.382947   -0.326734
C      -1.651307   -1.917987   -0.121098
H       1.136854    1.850972    0.347075
H      -0.232882    2.007294   -0.770845
H      -0.519625    2.003714    0.966025
H       0.612971   -0.379455   -0.628478
H       0.328629   -0.382994    1.093540
H      -5.805811   -1.022683   -0.805023
H      -3.140015   -3.435871   -0.370064
H      -0.803974   -2.580912    0.017400
