24

C       0.064342    1.551203    0.050471
C      -0.021936    0.015368    0.046710
C       0.864503   -0.536810    1.178314
C      -1.492095   -0.521722    0.049588
C      -2.298939   -0.032223    1.268167
C      -2.209076   -0.080527   -1.244221
C      -1.455700   -2.063898    0.068448
O      -2.777666   -2.566710   -0.091131
H       1.106743    1.867496   -0.060573
H      -0.503298    2.005746   -0.764904
H      -0.303277    1.971739    0.992462
H       0.418382   -0.328816   -0.900662
H       0.983626   -1.622371    1.132342
H       1.866426   -0.100010    1.111643
H       0.467260   -0.283393    2.167172
H      -2.457437    1.049468    1.237930
H      -3.278213   -0.516895    1.280361
H      -1.798835   -0.273091    2.212155
H      -1.628553   -0.360840   -2.131245
H      -3.185363   -0.563030   -1.318665
H      -2.363945    1.001214   -1.271974
H      -0.801469   -2.422950   -0.743844
H      -1.032287   -2.417487    1.018480
H      -2.747648   -3.521592    0.011812
