19

C      -0.033361    1.441660    0.079394
C       0.017286   -0.061611   -0.036533
O       1.051689   -0.674611   -0.200790
C      -1.295534   -0.844336    0.052948
O      -1.044557   -2.211957   -0.184002
C      -1.965515   -0.658980    1.406943
C      -3.220795    0.184132    1.542617
C      -3.313595   -1.313451    1.575620
O      -3.887380   -1.942914    0.471587
H       0.972110    1.854720   -0.006920
H      -0.672495    1.856177   -0.708137
H      -0.479225    1.736331    1.034495
H      -1.970115   -0.460505   -0.726966
H      -0.080079   -2.283632   -0.280946
H      -1.293205   -0.706408    2.259668
H      -3.377309    0.739358    2.460495
H      -3.596908    0.666859    0.646877
H      -3.520161   -1.786624    2.535097
H      -3.254452   -2.606881    0.167369
