18

C      -0.063913    1.419667   -0.001125
N      -0.061362   -0.027598    0.021579
N       0.029981   -0.750799   -1.092411
C       0.075988   -2.012538   -0.658206
C       0.165520   -3.182483   -1.582676
C       0.017138   -1.991311    0.752471
C       0.058346   -3.130273    1.722652
O       1.220533   -3.941942    1.565618
N      -0.059848   -0.718568    1.153880
H       0.952166    1.809634   -0.119114
H      -0.676677    1.758918   -0.837186
H      -0.481009    1.770224    0.942308
H       0.818311   -3.948874   -1.157673
H      -0.817570   -3.640804   -1.744201
H       0.553178   -2.872860   -2.555550
H      -0.029340   -2.731228    2.742203
H      -0.784337   -3.810732    1.560001
H       1.986268   -3.368356    1.676427
