18

O      -0.057518    1.439790   -0.230023
C       0.088720    0.053350    0.041041
C      -1.301623   -0.553316    0.018124
C      -2.077672   -0.686045   -1.315855
N      -2.329164   -2.159774   -1.108691
C      -1.001338   -2.775459   -1.081543
C      -1.441911   -2.076629    0.155343
C      -1.726269   -2.756471    1.375058
C      -1.940913   -3.297626    2.428371
H       0.815987    1.841765   -0.234607
H       0.731593   -0.431852   -0.709840
H       0.547208   -0.121821    1.027789
H      -1.915068   -0.048316    0.767519
H      -3.021920   -0.141856   -1.338516
H      -1.515453   -0.469094   -2.230376
H      -1.033527   -3.859986   -1.056401
H      -0.205529   -2.355630   -1.694170
H      -2.140422   -3.783511    3.351248
