18

C      -1.530804   -0.881254    0.189406
N      -0.304523   -0.086073    0.227989
C       0.634133   -0.400728    1.285969
C       0.119496    0.171862    2.619665
O      -0.227076    1.523855    2.489414
C       1.278367   -1.810538    1.418447
O       2.601821   -1.230148    1.191701
C       2.080470    0.017955    0.956222
O       2.652922    0.990480    0.588163
H      -2.128674   -0.694800    1.086070
H      -2.125023   -0.569589   -0.673074
H      -1.360335   -1.967199    0.114695
H       0.153849   -0.084197   -0.675120
H      -0.733791   -0.443177    2.956440
H       0.898773    0.084527    3.385204
H      -0.540333    1.623269    1.577980
H       1.226143   -2.289961    2.398628
H       1.029298   -2.521206    0.626903
