17

C       0.325428    1.424634   -0.046040
C      -0.018760   -0.070541   -0.034619
C       0.873401   -0.922095   -1.002122
C       1.809727   -1.264928    0.186511
C       0.674321   -0.854648    1.155912
O       0.957745   -0.188834    2.348440
C      -1.456378   -0.269285   -0.155020
N      -2.595419   -0.449998   -0.245886
H       1.410011    1.572888   -0.019705
H      -0.051664    1.899530   -0.955505
H      -0.116019    1.930866    0.816397
H       0.341285   -1.795912   -1.381302
H       1.304276   -0.376799   -1.843546
H       2.186975   -2.285686    0.264192
H       2.659177   -0.577063    0.250388
H       0.058810   -1.714999    1.429077
H       1.606981    0.500221    2.172871
