25

C      -0.185152    1.490916    0.099774
C      -0.173285   -0.020771   -0.144429
C       0.765341   -0.470229   -1.274284
C       0.906833   -2.017233   -1.340992
C       0.858042   -2.387180   -2.836371
C       0.518106   -3.846012   -3.132951
C      -0.134204   -1.356869   -3.397491
O      -1.444008   -1.769599   -3.003525
C       0.283281   -0.053417   -2.699096
H       0.813053    1.853475    0.370883
H      -0.504063    2.045381   -0.789554
H      -0.867057    1.756070    0.914050
H       0.123729   -0.529012    0.782302
H      -1.186232   -0.375059   -0.375613
H       1.749407   -0.022422   -1.090089
H       1.818938   -2.373970   -0.853161
H       0.060894   -2.488612   -0.828351
H       1.832534   -2.149556   -3.285827
H      -0.471727   -4.096989   -2.743552
H       0.515296   -4.043472   -4.210509
H       1.250044   -4.518767   -2.673650
H      -0.077232   -1.281312   -4.493828
H      -2.060200   -1.076847   -3.259219
H      -0.541057    0.668620   -2.675221
H       1.094508    0.418101   -3.264904
