17

N       0.026312    1.433980    0.154919
C       0.042087    0.028825    0.039692
C      -1.051262   -0.819417    0.015047
N      -0.594980   -2.136864   -0.014642
C       0.761230   -2.120298   -0.019960
C       1.195006   -0.809284    0.018049
C       2.656523   -0.827901    0.023173
C       3.086405   -2.105886   -0.013644
C       1.910550   -3.079468   -0.043476
H       0.748656    1.867873   -0.406914
H      -0.866338    1.829245   -0.113817
H      -2.106963   -0.600704    0.024470
H      -1.189131   -2.946092   -0.036116
H       3.295960    0.045823    0.056756
H       4.115569   -2.438573   -0.017947
H       1.930477   -3.759234    0.819492
H       1.935050   -3.714449   -0.939875
