17

C      -0.645696    1.156625    0.005261
C       0.134704   -0.145168   -0.046261
C       1.448991   -0.211750   -0.840518
O       1.822099    0.302624   -1.852275
C       2.128605   -1.057261    0.244002
C       0.974560   -0.628375    1.204700
O       1.274710    0.483402    2.019264
C       0.324014   -1.741684    2.000206
O       0.167116   -2.862115    1.585790
H      -0.039751    1.954296    0.438810
H      -0.928587    1.450622   -1.009692
H      -1.558389    1.053949    0.599198
H      -0.494879   -0.983547   -0.370959
H       2.072280   -2.127719    0.021316
H       3.146984   -0.784927    0.531227
H       2.041777    0.272444    2.562006
H      -0.016537   -1.428870    3.013224
