13

O       0.195956    1.374689   -0.031107
C       0.097486   -0.045925   -0.037790
C      -1.315856   -0.532918   -0.052250
N      -1.980898   -0.848475    1.064566
N      -3.188732   -1.169627    0.640238
N      -3.393919   -1.102162   -0.680509
C      -2.214199   -0.693770   -1.130181
O      -1.945765   -0.487476   -2.429733
H      -0.268108    1.686897    0.752955
H       0.610443   -0.370160   -0.947359
H       0.616141   -0.490031    0.822963
H      -3.912822   -1.472751    1.269481
H      -2.743246   -0.691027   -2.933783
