17

C      -0.034117    1.549512   -0.009557
C       0.063652    0.027413   -0.017348
C       0.821237   -0.558143   -1.234926
C       1.450621   -1.843374   -0.690324
O       2.643600   -2.220863   -1.324537
C       1.696023   -1.501829    0.784747
O       2.521004   -2.050426    1.488867
N       0.853095   -0.486956    1.103932
H       0.962152    2.001716   -0.036055
H      -0.595011    1.894889   -0.883467
H      -0.554957    1.911782    0.883305
H      -0.953208   -0.391498    0.020794
H       0.167040   -0.711529   -2.095157
H       1.630551    0.118853   -1.528976
H       0.713444   -2.665983   -0.716373
H       3.205415   -2.573147   -0.617622
H       0.786444   -0.126823    2.043344
