12

C      -0.005462    1.432264   -0.016030
N       0.135568   -0.011228    0.048869
C       0.699595   -0.630539   -0.889712
O       1.283955    0.021154   -1.969183
N       1.468758   -0.698003   -3.217083
N       1.382824   -1.920465   -3.190825
C       1.144078   -2.588154   -1.955865
N       0.806445   -2.022578   -0.869651
H       0.874930    1.910893    0.431619
H      -0.112605    1.819842   -1.035713
H      -0.873882    1.724443    0.579287
H       1.255819   -3.665725   -2.016437
