15

O       0.385077    0.089275    0.424532
C       0.176388    1.215475    0.027391
C       1.244517    2.020361   -0.726782
N       2.539071    1.381696   -0.821193
C       3.270930    1.346799    0.446447
C       4.603583    0.766821    0.256813
N       5.647908    0.293494    0.119244
C      -1.097216    1.884550    0.203924
C      -2.133973    2.484403    0.325649
H       0.852143    2.211081   -1.735227
H       1.342388    3.007442   -0.257470
H       2.421563    0.430680   -1.157367
H       3.396062    2.376412    0.804004
H       2.763823    0.783430    1.244416
H      -3.059588    2.994383    0.445121
