21

C      -0.497676    1.440570   -0.061545
C       0.047411    0.013690   -0.019519
C       1.156016   -0.268928   -1.061276
O       2.075666   -1.182887   -0.466846
C       1.538174   -1.637027    0.771249
C       0.701267   -0.468147    1.301313
C       1.585858    0.598256    1.989856
C       2.180093    0.116152    3.230887
C       2.654661   -0.302290    4.253292
H       0.293387    2.183358    0.082198
H      -0.964070    1.645491   -1.030977
H      -1.258875    1.601451    0.709006
H      -0.785665   -0.672151   -0.216904
H       0.742168   -0.693619   -1.986086
H       1.703133    0.644546   -1.331214
H       0.907153   -2.528372    0.622812
H       2.371536   -1.909824    1.424081
H      -0.054487   -0.808364    2.015311
H       2.382105    0.909460    1.301937
H       0.991344    1.493803    2.203478
H       3.081786   -0.658526    5.157631
