20

C      -0.069800    1.561524   -0.042918
C      -0.180382    0.033036   -0.113464
C       0.647455   -0.558969   -1.248834
C       2.193911   -0.659183   -1.112261
C       2.004038   -1.941342   -0.275496
C       0.828538   -2.129971   -1.299699
C       1.636967   -2.218204   -2.568178
N       1.524158   -3.000331   -3.548165
O       2.565112   -1.202996   -2.416229
H       0.957968    1.880297    0.160751
H      -0.378661    2.023980   -0.986364
H      -0.705892    1.964598    0.750634
H       0.099049   -0.397984    0.853507
H      -1.228497   -0.248069   -0.276742
H       0.335132   -0.111727   -2.198943
H       2.861552    0.162662   -0.861703
H       2.818815   -2.667762   -0.294004
H       1.666468   -1.766482    0.744757
H       0.015727   -2.840121   -1.174725
H       2.230352   -2.790556   -4.256954
