21

C      -0.012874    1.533832    0.052786
C      -0.068997    0.002376    0.032583
C      -1.467717   -0.569974   -0.051561
C      -2.394369   -0.188614   -1.238957
C      -3.634093   -0.891097   -0.704979
C      -3.146326   -2.117033    0.075519
C      -1.627532   -2.113346   -0.013814
C      -3.468160   -0.828402    0.795443
O      -2.258395   -0.161332    1.090114
H       1.014395    1.880429    0.199643
H      -0.375388    1.964190   -0.886074
H      -0.628315    1.929711    0.864655
H       0.511139   -0.386625   -0.813143
H       0.401573   -0.393144    0.940780
H      -2.528072    0.892568   -1.328453
H      -2.034563   -0.590579   -2.190664
H      -4.599709   -0.854217   -1.190842
H      -3.739514   -3.014919    0.183571
H      -1.236313   -2.594787   -0.914800
H      -1.146374   -2.546924    0.868142
H      -4.257957   -0.681721    1.518344
