14

O      -0.333362    0.305297    0.698082
C       0.403445    0.765978   -0.135579
C       1.115696    2.068410    0.037081
O       2.281028    2.263037   -0.776099
C       1.163168    3.087857   -1.041108
C       0.463391    2.939800   -2.384772
C       1.075496    3.779506   -3.408335
C       1.590138    4.487682   -4.230671
H       0.619122    0.244058   -1.092768
H       1.189606    2.408419    1.069128
H       1.281931    4.121611   -0.713863
H       0.483110    1.891456   -2.699088
H      -0.592221    3.215989   -2.262088
H       2.043911    5.104361   -4.966623
