19

C       0.243669    1.533129    0.303823
C       0.063053    0.066279    0.084578
C      -1.045281   -0.644639   -0.129522
C      -2.475336   -0.175605   -0.195028
C      -3.124784   -0.490131   -1.468330
C      -3.647527   -0.757013   -2.516890
C      -0.688923   -2.099585   -0.293966
O       0.725269   -2.167857   -0.155806
C       1.247088   -0.868067    0.081779
H       0.908011    1.963694   -0.455947
H      -0.701303    2.080538    0.269353
H       0.711588    1.731380    1.276426
H      -3.051236   -0.644232    0.617113
H      -2.527613    0.904178   -0.016967
H      -4.113042   -0.988859   -3.442590
H      -1.173061   -2.732821    0.468841
H      -0.992494   -2.491840   -1.276503
H       1.976619   -0.604553   -0.702375
H       1.790698   -0.847500    1.041527
