14

N       1.088091   -0.080765    0.303438
C      -0.029899    0.475169    0.071026
N      -1.203092   -0.222073    0.309828
C      -2.473319    0.235217    0.111434
N      -2.646757    1.479130   -0.361056
C      -3.918997    1.825928   -0.517808
N      -4.988388    1.072308   -0.255544
C      -4.679356   -0.142791    0.208841
N      -3.461299   -0.624314    0.415283
H       1.850972    0.555089    0.079259
H      -0.209516    1.480606   -0.311762
H      -1.115715   -1.164306    0.666859
H      -4.104336    2.828001   -0.899341
H      -5.510036   -0.805741    0.441832
