21

O      -0.187794    0.006270   -0.176792
C      -0.038119    1.207489   -0.165849
C       1.256474    1.902702    0.000468
C       1.223057    3.244972   -0.018153
C       2.395968    4.175955    0.120077
C       3.265166    3.954530    1.375334
C       4.115393    2.677068    1.365170
C       3.337918    1.354244    1.410110
C       2.490683    1.049881    0.162523
H      -0.908165    1.892350   -0.286139
H       0.247979    3.712556   -0.155547
H       3.036504    4.078591   -0.770000
H       2.032549    5.208307    0.116680
H       3.935807    4.816579    1.471482
H       2.620683    3.963182    2.263519
H       4.758231    2.683514    0.472951
H       4.794705    2.710851    2.225547
H       4.058292    0.537355    1.536036
H       2.692903    1.334776    2.297976
H       2.160849    0.007493    0.186349
H       3.123098    1.153907   -0.731215
