13

C      -0.062106    1.521105    0.011792
C       0.080662    0.014440    0.001031
O       1.148845   -0.554756   -0.012922
C      -1.170486   -0.732511    0.008643
C      -2.202898   -1.353786    0.014938
C      -3.457587   -2.098688    0.023085
C      -3.277908   -3.556300    0.014718
N      -3.159471   -4.704310    0.008341
H       0.926964    1.980860    0.005010
H      -0.635918    1.850865   -0.861151
H      -0.618756    1.839913    0.899784
H      -4.049214   -1.826411    0.906851
H      -4.065274   -1.818326   -0.847151
