20

O       0.349587    0.079853   -0.946046
C       0.202487    1.161336   -0.416962
N       1.111261    1.776601    0.385518
C       2.417902    1.205727    0.703761
C       3.547611    2.115452    0.322121
C       4.460409    2.629882    1.149220
C       5.502488    3.447777    0.426672
C       4.879951    3.634705   -0.982358
C       3.822995    2.510139   -1.115821
H      -0.714357    1.772542   -0.537710
H       0.883271    2.684446    0.759304
H       2.471345    0.965544    1.772531
H       2.461634    0.263189    0.148102
H       4.492749    2.449385    2.219334
H       5.718591    4.401656    0.921171
H       6.457166    2.903895    0.383931
H       4.382677    4.608804   -1.031111
H       5.624506    3.613968   -1.781751
H       4.208992    1.645067   -1.673908
H       2.922682    2.835960   -1.647509
