17

C      -0.139584    1.456999   -0.019733
C      -0.046509    0.006357   -0.016091
C       0.026679   -1.199241   -0.013054
C       0.131471   -2.600114   -0.009785
C       1.218279   -3.439933   -0.010313
C       2.657590   -3.035578   -0.014666
C       0.682671   -4.767964   -0.005755
C      -0.670112   -4.639181   -0.002668
O      -1.031054   -3.335632   -0.005122
H       0.856948    1.911997   -0.028899
H      -0.678222    1.821855   -0.901780
H      -0.664466    1.827325    0.868316
H       3.183671   -3.417635    0.867743
H       3.180765   -3.426467   -0.894904
H       2.753159   -1.947035   -0.020197
H       1.239922   -5.692286   -0.004868
H      -1.481791   -5.348443    0.001094
