17

C       0.217403    1.347651   -0.220904
O      -0.231380    0.045583    0.151016
C       0.521726   -0.544471    1.127168
C       1.926981   -1.058684    0.928269
C       0.840679   -1.998812    1.381800
N       0.689802   -1.843291    2.849557
C       0.195321   -0.436548    2.637782
C       0.871427    0.588671    3.432217
N       1.405577    1.420820    4.031021
H       1.257047    1.322274   -0.570293
H      -0.432173    1.682135   -1.031648
H       0.142603    2.052755    0.616530
H       2.194705   -1.156022   -0.119196
H       2.737596   -0.802131    1.604568
H       0.556823   -2.903626    0.860681
H      -0.069530   -2.415894    3.205395
H      -0.886935   -0.345424    2.771852
