16

N      -0.130866    1.369413   -0.565136
C      -0.030876    0.279510    0.065279
C      -1.073395   -0.801085   -0.035355
C      -1.610018   -1.186789    1.344162
O      -0.815644   -2.120970    2.092303
C       0.527438   -2.186555    2.103730
O       1.069354   -3.025999    2.770582
C       1.393882   -1.274990    1.223385
O       0.968057    0.059818    0.975244
H       0.659273    1.979387   -0.343549
H      -1.888838   -0.407692   -0.644722
H      -0.690139   -1.693608   -0.544424
H      -1.767949   -0.292326    1.956838
H      -2.570399   -1.695210    1.235717
H       2.344454   -1.189704    1.748899
H       1.585290   -1.806870    0.281848
