19

C       0.612004    1.372693    0.333484
O       0.936343    0.004008    0.401920
C      -0.124233   -0.786795    0.888954
C       0.342740   -2.205945    0.927385
O      -0.542325   -3.202619    1.442070
C       0.617521   -4.088537    1.471747
C       0.898470   -4.364374   -0.027828
C       1.275067   -2.883824   -0.091712
C       1.593746   -2.854321    1.406621
H       0.357810    1.781205    1.323998
H       1.490223    1.896560   -0.050959
H      -0.237850    1.556708   -0.342252
H      -0.427497   -0.464046    1.899177
H      -1.013297   -0.704590    0.239513
H       0.546408   -4.867855    2.227240
H       1.774549   -5.003949   -0.164131
H       0.054552   -4.732937   -0.619833
H       1.761856   -2.327815   -0.880891
H       2.447778   -2.516728    1.975990
