17

O      -0.085840   -0.007206   -0.045098
C      -0.037642    1.178085    0.080999
C      -1.065609    2.296643    0.308806
N       0.072085    3.209564    0.582866
C       1.080609    2.231040    0.105111
C       0.054829    4.504949   -0.016176
C      -0.597144    5.629355    0.744390
C       0.904972    5.583446    0.601820
H      -1.623108    2.525923   -0.614116
H      -1.777770    2.169082    1.130570
H       1.925477    2.055886    0.779100
H       1.467549    2.431453   -0.907446
H      -0.047976    4.530657   -1.107650
H      -1.150534    6.373648    0.183259
H      -1.011341    5.386511    1.715862
H       1.478912    5.310395    1.479502
H       1.387041    6.296102   -0.057582
