15

C       0.001461    1.481883    0.108411
C      -0.001832   -0.002828   -0.045100
C      -0.046500   -0.796374   -1.176501
C      -0.024915   -2.149876   -0.764586
C       0.032750   -2.165461    0.620073
N       0.045557   -0.843992    1.033616
C       0.073935   -3.232040    1.537065
C       0.109795   -4.134485    2.336527
H       0.912282    1.844391    0.601037
H      -0.054286    1.956727   -0.873524
H      -0.852331    1.837810    0.698220
H      -0.090037   -0.430558   -2.191335
H      -0.048521   -3.026262   -1.392837
H       0.084703   -0.558916    1.997541
H       0.140892   -4.937714    3.029978
