14

C      -0.009313    1.403822   -0.022156
N      -0.016175   -0.045757    0.126931
C      -1.194378   -0.724744    0.041603
N      -2.365875   -0.128986    0.011698
O      -3.289140   -1.166568   -0.008853
N      -2.699753   -2.368548   -0.008623
C      -1.405524   -2.150367    0.025061
C      -0.404402   -3.232510    0.056914
O      -0.652892   -4.410038    0.009933
H       1.007090    1.766546    0.139690
H      -0.358325    1.727941   -1.011081
H      -0.665969    1.847447    0.729914
H       0.794229   -0.530742   -0.222213
H       0.644502   -2.868204    0.136685
