19

C       0.485954   -0.744529    1.561281
O      -0.013549   -0.291726    0.303311
C      -1.301533   -0.742470   -0.002018
C      -2.396142    0.031035    0.696823
O      -2.323254    1.411080    0.390772
C      -1.521490   -1.125687   -1.447728
O      -0.395156   -1.076230   -2.280600
C      -1.486241   -2.206350   -0.378070
O      -0.375247   -3.047459   -0.383339
H       1.508672   -0.368208    1.636887
H      -0.096705   -0.345726    2.402049
H       0.490688   -1.837520    1.607658
H      -3.379717   -0.324333    0.370342
H      -2.337923   -0.141245    1.784373
H      -1.385555    1.638051    0.413365
H      -2.460238   -0.825442   -1.909150
H      -0.581559   -1.627623   -3.049221
H      -2.390646   -2.729082   -0.081387
H       0.264138   -2.630244   -0.979821
