18

N       1.068036   -0.134664    0.701384
C      -0.049252   -0.002269   -0.056686
O      -0.224505    0.874570   -0.881175
C      -1.101083   -1.066945    0.161124
N      -0.962234   -2.002724    1.289276
C      -2.066233   -1.031701    1.299855
C      -2.056125    0.016457    2.376775
C      -2.324479   -0.388204    3.780248
N      -0.980460    0.055496    3.374283
H       1.757071    0.598308    0.681650
H       1.116109   -0.854286    1.402061
H      -1.495875   -1.440013   -0.780324
H      -1.280269   -2.933896    1.038946
H      -3.059283   -1.410704    1.060574
H      -2.390778    0.997167    2.045290
H      -2.852382    0.282909    4.451598
H      -2.479890   -1.446443    3.977733
H      -0.403109   -0.771881    3.233472
