20

C       0.214987    1.414864    0.325883
C      -0.202590    0.026187   -0.174540
C       0.611419   -0.455639   -1.370217
C       0.398491    0.320787   -2.657064
C       1.986856   -1.023835   -1.109090
C       0.843727   -1.960949   -1.476669
O       0.276341   -2.761055   -0.480824
C       0.862024   -2.588487   -2.781981
N       0.885603   -3.116864   -3.811170
H       1.272807    1.431957    0.609466
H       0.060744    2.189203   -0.431553
H      -0.371426    1.695042    1.205978
H      -0.112752   -0.699429    0.636806
H      -1.262811    0.040035   -0.456939
H       0.728570    1.357228   -2.537767
H       0.954716   -0.110372   -3.492879
H      -0.661516    0.332941   -2.932376
H       2.773069   -0.861851   -1.838337
H       2.319550   -1.098411   -0.078845
H       0.870310   -3.502098   -0.314279
