15

C      -0.046640    1.421980    0.041178
O      -0.049313   -0.004087   -0.010030
C      -1.240061   -0.621417    0.009899
C      -1.253182   -2.024645   -0.040249
N      -2.400052   -2.691171   -0.023682
C      -3.534217   -1.993390    0.041615
C      -3.500877   -0.598949    0.090684
O      -4.653000    0.094771    0.156467
N      -2.360461    0.088664    0.075127
H       1.003994    1.712523    0.014350
H      -0.578851    1.847781   -0.814543
H      -0.515852    1.783909    0.960778
H      -0.323975   -2.581399   -0.093233
H      -4.476574   -2.529244    0.055663
H      -4.411938    1.030812    0.181681
