16

N      -0.078552    1.246871   -0.313737
C      -0.160839   -0.024059   -0.359326
N      -1.333176   -0.663510   -0.037340
C      -1.725711   -2.068766   -0.036224
C      -3.186406   -1.600354    0.303407
C      -2.621970   -0.179924    0.269536
N      -3.128097    0.956599    0.444468
C      -1.562823   -2.806605   -1.345854
O      -1.005605   -2.359100   -2.313006
H       0.852073    1.552985   -0.588163
H       0.637386   -0.717145   -0.642368
H      -1.266449   -2.669385    0.761602
H      -3.926563   -1.806251   -0.472474
H      -3.566688   -1.929236    1.270789
H      -2.414521    1.678965    0.328248
H      -2.005607   -3.828389   -1.342225
