15

O       0.117151    1.414246    0.175670
C       0.019684    0.038506    0.072445
C      -0.485951   -0.826138    1.180736
C      -1.327837   -0.673759   -0.091594
C      -2.551883    0.124111   -0.043697
N      -3.677115   -0.162775   -0.695458
N      -4.444486    0.864260   -0.345029
N      -3.876688    1.741700    0.458651
N      -2.667690    1.286397    0.664335
H      -0.694104    1.753809    0.586341
H       0.827424   -0.349483   -0.539834
H      -0.026063   -1.791781    1.360516
H      -0.864373   -0.325408    2.065801
H      -1.380788   -1.517339   -0.769102
H      -5.396875    0.967107   -0.662601
