20

C      -0.201639    1.519277   -0.030327
C      -0.055539    0.000647   -0.064458
O      -1.273791   -0.616059   -0.429965
C       1.229351   -0.486933   -0.801111
C       1.934497   -0.626593    0.579747
C       0.520424   -0.606844    1.235665
C       2.738847   -1.896869    0.785609
N       3.992013   -1.725361    1.299703
O       2.296240   -2.996279    0.507740
H       0.720220    2.008474    0.300493
H      -0.436946    1.907903   -1.029552
H      -1.009550    1.806989    0.649681
H      -1.602132   -0.189396   -1.228943
H       1.062368   -1.478525   -1.226818
H       1.687566    0.174502   -1.541477
H       2.514479    0.264699    0.834974
H       0.393017   -0.046006    2.164782
H       0.154991   -1.628329    1.358212
H       4.344392   -0.825958    1.573676
H       4.547782   -2.543744    1.487858
