18

C      -0.094434    1.436062   -0.052993
C      -0.068639   -0.016017    0.033651
C      -0.052982   -1.216888    0.104356
C       0.005561   -2.663661    0.196135
O      -1.325148   -3.202696    0.005127
C      -1.410396   -4.544721    0.067000
O      -0.470095   -5.273855    0.264880
C      -2.849353   -5.010225   -0.146181
N      -3.046285   -6.447333   -0.097598
H       0.543120    1.798470   -0.866569
H      -1.111236    1.797028   -0.242065
H       0.253965    1.897393    0.877336
H       0.670751   -3.090482   -0.562397
H       0.382137   -2.992203    1.170957
H      -3.475819   -4.519866    0.608016
H      -3.189623   -4.617208   -1.111309
H      -2.445558   -6.887188   -0.789554
H      -2.709211   -6.797484    0.795109
