19

C       0.103416    1.547859   -0.237870
C      -0.004982    0.046137   -0.050786
C      -1.258458   -0.584682   -0.627787
C       1.288108   -0.774634   -0.092524
C       0.571049   -0.547183    1.193276
C       1.012614    0.064893    2.514204
C       0.284069   -1.143273    3.110773
O       0.048360   -1.597396    4.182414
O      -0.082811   -1.648789    1.885011
H       1.017106    1.950001    0.210688
H       0.118089    1.802635   -1.303567
H      -0.750196    2.064996    0.215263
H      -1.292536   -0.447574   -1.714197
H      -1.305787   -1.654724   -0.413657
H      -2.156831   -0.121854   -0.204131
H       1.234963   -1.772234   -0.516043
H       2.230526   -0.260656   -0.255541
H       2.086036    0.079303    2.712488
H       0.573843    1.028757    2.779691
