16

N       0.307060   -0.150861    1.369776
C       0.156793    0.563599    0.474391
C      -0.042745    1.482097   -0.666085
O       1.076259    2.275252   -0.959923
C       1.365627    3.275970   -0.009562
C       2.255484    2.940182    1.250684
C       3.220800    4.024783    0.759724
O       3.684448    3.599677   -0.522356
C       2.428483    4.276030   -0.460757
H      -0.250900    0.884348   -1.558511
H      -0.934069    2.094211   -0.455353
H       0.444027    3.793113    0.294800
H       1.751999    3.155256    2.194832
H       2.683812    1.937687    1.271274
H       3.850151    4.699492    1.326500
H       2.306006    5.160809   -1.074205
