17

N      -0.090938    1.473789    0.103469
C      -0.012302    0.014125   -0.005283
C      -1.372215   -0.626089    0.328805
C      -1.804789   -0.311314    1.758619
O      -3.027321   -0.995899    2.046005
C      -4.123469   -0.257434    2.311631
O      -5.186499   -0.743153    2.549474
C       0.459235   -0.446800   -1.329273
N       0.826389   -0.760996   -2.379562
H       0.829210    1.885697   -0.018961
H      -0.672270    1.843035   -0.644668
H       0.723526   -0.327915    0.733455
H      -2.129351   -0.262763   -0.375886
H      -1.308802   -1.710049    0.197047
H      -1.059173   -0.669417    2.476840
H      -1.920474    0.767861    1.900677
H      -3.920711    0.831709    2.286236
