17

C      -0.077411    1.639967   -0.010629
C       0.011353    0.124865    0.009488
C       1.156660   -0.616681   -0.727060
O       2.362104   -0.050115   -0.141069
C       2.051958   -0.042259    1.205631
O       2.785585    0.355156    2.057686
C       0.655529   -0.640669    1.230459
C       0.911177   -1.822329    0.231818
O      -0.244365   -2.586195    0.024294
H       0.888263    2.112619    0.187643
H      -0.428609    1.989418   -0.987270
H      -0.789090    1.993805    0.742204
H      -0.944591   -0.339087   -0.234986
H       1.269359   -0.684691   -1.807834
H       0.183051   -0.767872    2.200398
H       1.794569   -2.443164    0.426552
H      -0.052404   -3.248749   -0.647329
