21

C       0.036648    1.599272    0.229653
C      -0.005199    0.073226    0.026901
C      -1.392141   -0.476029   -0.100388
C      -2.187459   -0.746267   -1.201558
C      -1.845682   -0.585456   -2.650894
C      -3.414320   -1.215194   -0.656399
C      -4.635857   -1.657142   -1.397919
N      -3.383626   -1.234273    0.673699
N      -2.152950   -0.779040    0.986008
H       1.068621    1.952014    0.322121
H      -0.428193    2.116847   -0.614505
H      -0.504590    1.891334    1.134980
H       0.561775   -0.189833   -0.872168
H       0.508605   -0.419748    0.862253
H      -2.064537   -1.496343   -3.220301
H      -2.414437    0.226245   -3.121766
H      -0.784410   -0.359777   -2.791954
H      -4.414258   -2.484215   -2.082823
H      -5.399246   -1.990681   -0.691854
H      -5.057499   -0.845651   -2.002917
H      -1.885528   -0.723223    1.953911
