18

C       0.270379    1.530525   -0.081273
C      -0.044464    0.054458    0.096718
O       0.376013   -0.666893   -1.089508
C       1.061570   -1.804486   -0.774908
N       1.383088   -2.718082   -1.584410
C       1.370318   -1.810915    0.692430
C       1.724407   -3.080962    1.401138
O       2.104767   -0.609586    1.043624
C       0.691894   -0.627492    1.234763
H       1.351720    1.674629   -0.136483
H      -0.187425    1.908378   -0.998711
H      -0.122706    2.105601    0.763067
H      -1.125169   -0.102457    0.213443
H       1.044820   -2.505362   -2.524719
H       2.597487   -3.538347    0.928338
H       1.949164   -2.878718    2.450700
H       0.900955   -3.798132    1.339597
H       0.332274   -0.551145    2.257236
