23

C       0.005863    1.544537   -0.146000
C       1.448607    2.069881   -0.040439
C       2.211052    1.539484    1.193609
C       1.660842    2.065758    2.540325
C       0.516664    1.253476    3.093000
C       0.083712    0.120804    2.539495
C       0.699755   -0.450688    1.283157
C      -0.066344    0.018614    0.019278
C       2.168241    0.001435    1.186276
H      -0.613227    2.017054    0.624349
H      -0.424284    1.836692   -1.110812
H       2.006391    1.762168   -0.935910
H       1.447995    3.166726   -0.039613
H       3.251208    1.874656    1.105253
H       2.469889    2.084125    3.285708
H       1.349982    3.114643    2.433777
H       0.047202    1.630338    3.999504
H      -0.757789   -0.412323    2.976302
H       0.652800   -1.545402    1.327735
H      -1.112519   -0.305628    0.066226
H       0.376808   -0.473453   -0.857263
H       2.623558   -0.384048    0.265665
H       2.741258   -0.403323    2.028251
