14

O      -0.045814   -0.084572    0.004857
C       0.018239    1.126677    0.010216
N      -1.053675    2.011663    0.028418
C      -0.712740    3.436605    0.030227
C       0.784081    3.347411    0.009192
C       1.171712    2.040863   -0.002060
N       2.540530    2.059542   -0.021512
C       2.893970    3.384300   -0.020041
N       1.850013    4.198266   -0.001634
H      -1.997924    1.665619    0.039195
H      -1.121040    3.952308   -0.848577
H      -1.096678    3.944225    0.924577
H       3.162349    1.268019   -0.033993
H       3.927869    3.695929   -0.033009
