16

C       0.034323    1.474197    0.018212
N       0.025451    0.015031    0.022140
C       0.695553   -0.511316    1.207547
C      -1.338162   -0.516849   -0.106642
C      -2.031684   -0.018485   -1.300228
C      -2.632725    0.376285   -2.260669
C      -1.313678   -1.995631   -0.156410
N      -1.317482   -3.149972   -0.174519
H       1.071454    1.816787    0.057948
H      -0.419207    1.851490   -0.899682
H      -0.504029    1.910740    0.880648
H       0.195247   -0.219082    2.150185
H       0.743375   -1.601684    1.164961
H       1.717840   -0.125965    1.232576
H      -1.957139   -0.251235    0.777389
H      -3.157331    0.722811   -3.117288
