15

O       0.117752    1.351560    0.224241
C       0.029472   -0.021094    0.081550
C      -0.303306   -0.867644    1.277183
C      -1.263760   -0.800766    0.099252
O      -2.514453   -0.228027    0.216838
C      -1.106548   -1.868680   -0.931760
O      -1.976786   -2.587402   -1.340720
O       0.170536   -1.890016   -1.389376
C       0.892711   -0.708715   -0.971835
H      -0.527939    1.762343   -0.362736
H       0.259030   -1.772161    1.489092
H      -0.653486   -0.309033    2.138226
H      -3.138580   -0.887592   -0.118461
H       1.034177   -0.060304   -1.843271
H       1.869215   -1.027516   -0.597606
