20

C      -0.131546    1.346155    0.107768
O       0.009492   -0.047198   -0.064515
C       0.699464   -0.513783   -1.233501
C       0.032796   -0.017097   -2.526809
C       2.181152   -0.109861   -1.195028
C       0.584716   -2.050619   -1.124467
C      -0.841556   -2.558872   -1.132936
O      -1.238556   -3.450826   -1.840808
H       0.834227    1.867059    0.161163
H      -0.734913    1.811829   -0.683148
H      -0.648376    1.485944    1.060613
H       0.168760    1.058969   -2.665541
H       0.473448   -0.519062   -3.393217
H      -1.040390   -0.230312   -2.522068
H       2.635107   -0.418908   -0.249001
H       2.728254   -0.586572   -2.013848
H       2.307497    0.971280   -1.303056
H       1.135669   -2.542997   -1.929749
H       1.029419   -2.346826   -0.164753
H      -1.515299   -2.048696   -0.413578
