25

C       0.206461    1.546102    0.213716
C      -0.196357    0.111273   -0.152307
C       0.606672   -0.485133   -1.301078
C       0.432109    0.221136   -2.634945
C       1.974258   -1.060946   -0.996801
C       0.833514   -1.986368   -1.362239
C       0.274202   -2.964549   -0.376392
C      -0.921046   -3.813763   -0.739151
C       0.442538   -4.446952   -0.612870
H       1.270873    1.602487    0.465886
H       0.022920    2.244561   -0.608410
H      -0.362931    1.901389    1.078436
H      -0.088800   -0.518605    0.736376
H      -1.263926    0.087210   -0.410821
H       0.776794    1.260262   -2.594706
H       1.001418   -0.279921   -3.424229
H      -0.621414    0.232195   -2.940421
H       2.779195   -0.912099   -1.709663
H       2.299748   -1.065029    0.039637
H       0.868868   -2.387673   -2.373940
H       0.332178   -2.655841    0.662962
H      -1.660681   -4.022048    0.026252
H      -1.335447   -3.699146   -1.735544
H       0.944225   -4.757494   -1.523763
H       0.637888   -5.087935    0.239890
