21

C      -0.049342    1.610418   -0.136549
C       0.020310    0.074966   -0.014807
C       0.621613   -0.530470   -1.260505
C       1.875897   -0.970861   -1.341184
C       2.854416   -0.903422   -0.197453
C       2.284539   -0.213617    1.037084
O       2.978433    0.437217    1.783934
C       0.788584   -0.414160    1.249065
C       0.300010    0.190179    2.563972
H       0.953059    2.050723   -0.153730
H      -0.553524    1.896661   -1.064919
H      -0.603400    2.054420    0.694982
H      -1.010927   -0.291462    0.080206
H      -0.020565   -0.575804   -2.137274
H       2.247807   -1.389654   -2.273121
H       3.162593   -1.918579    0.099432
H       3.778213   -0.387316   -0.481813
H       0.639926   -1.504355    1.273251
H       0.551398    1.250703    2.632337
H      -0.784618    0.078679    2.662648
H       0.774385   -0.305504    3.414840
