21

C       0.054614    1.515905   -0.053587
C       0.197693    0.007539    0.044518
O       0.500716   -0.496941   -1.254164
C       0.625709   -1.866317   -1.294120
C       1.879267   -2.586289   -0.872497
C       1.378550   -2.687952   -2.303862
C       0.136491   -3.610964   -2.475100
C      -0.358138   -4.245733   -1.201788
C      -0.628138   -2.786904   -1.453378
H       0.981069    1.965940   -0.421787
H      -0.751690    1.782390   -0.742889
H      -0.172527    1.941741    0.928383
H       1.000507   -0.268249    0.744839
H      -0.731977   -0.448568    0.417697
H       2.728115   -1.914907   -0.778010
H       1.909807   -3.428020   -0.188845
H       1.981743   -2.354716   -3.137910
H      -0.203100   -3.942641   -3.447720
H      -1.224807   -4.887521   -1.335771
H       0.308816   -4.590739   -0.419496
H      -1.625558   -2.375540   -1.540644
