17

C       0.256719    1.475491    0.233776
N       0.038359    0.046170    0.183226
C      -1.300185   -0.473246    0.530555
C      -0.621701   -1.666074    1.235493
C       0.677840   -0.792592    1.209674
C      -1.120022   -2.065814    2.591862
O      -2.013153   -1.532496    3.201491
C      -0.387924   -3.204550    3.196421
N       0.195645   -4.093194    3.651484
H       1.309859    1.696130    0.031305
H      -0.343158    1.965554   -0.539876
H      -0.009181    1.921902    1.210351
H      -1.848485    0.150470    1.251963
H      -1.946798   -0.692378   -0.324055
H      -0.509541   -2.551099    0.604386
H       1.606085   -1.284743    0.906224
H       0.840557   -0.271608    2.167992
