22

C      -0.043266    1.541732   -0.069210
C      -0.172040    0.034636   -0.209387
O       0.905856   -0.437497   -0.998462
C       0.904420   -1.829223   -1.181349
C      -0.043740   -2.471423   -2.235499
N       1.118452   -3.067529   -2.983175
C       1.916879   -1.902817   -3.413799
C       2.065743   -2.353965   -2.015168
C       3.308757   -2.981681   -1.459530
H       0.905819    1.802172    0.407796
H      -0.075551    2.022611   -1.051003
H      -0.860343    1.939945    0.539756
H      -0.154250   -0.450510    0.781248
H      -1.134407   -0.227969   -0.678322
H       0.831574   -2.341647   -0.210181
H      -0.689636   -3.258843   -1.841810
H      -0.638773   -1.772149   -2.832665
H       2.714392   -2.167284   -4.101812
H       1.411344   -0.966271   -3.636661
H       3.969120   -2.216525   -1.035173
H       3.072948   -3.701320   -0.667991
H       3.860035   -3.509402   -2.243003
