18

C      -0.114895    1.529923    0.003531
C       0.001846    0.002105    0.027887
C       0.688937   -0.561381   -1.209055
C       0.825190   -2.074622   -1.410957
C      -0.473131   -2.490315   -2.127716
O      -1.306723   -1.337316   -2.245778
C      -0.088950   -0.601758   -2.562322
C       0.657809   -1.939535   -2.922379
H       0.870828    2.005262   -0.058822
H      -0.701003    1.869301   -0.857506
H      -0.608177    1.905366    0.905198
H       0.563662   -0.310682    0.917804
H      -0.992627   -0.448496    0.108133
H       1.662311   -0.085625   -1.378450
H       1.441113   -2.778973   -0.865666
H      -0.930159   -3.469439   -2.076832
H      -0.263075    0.272910   -3.185468
H       1.232452   -2.290463   -3.767550
