15

C       0.004313    1.377067    0.007629
O      -0.038748   -0.050579    0.003083
C      -1.249154   -0.610581    0.010541
N      -2.332457    0.095193    0.021527
C      -3.545195   -0.553342    0.028746
C      -3.633472   -1.902119    0.024626
N      -2.472865   -2.639838    0.012977
C      -1.194443   -2.098540    0.005028
O      -0.191584   -2.782956   -0.005404
H       1.063070    1.636194   -0.000008
H      -0.498505    1.783515   -0.874527
H      -0.484179    1.777431    0.900556
H      -4.430956    0.068510    0.037859
H      -4.564805   -2.452189    0.029907
H      -2.502742   -3.650029    0.009619
