18

N       0.244297   -1.124427   -0.387815
C       0.109446    0.016075   -0.249798
C      -0.021309    1.442459   -0.070939
C      -1.134721    2.116708   -0.867595
C      -2.522544    1.681833   -0.455080
C      -3.641785    1.675364   -1.404491
O      -3.005717    0.459549   -1.010332
C       0.328589    1.989079    1.307715
C       1.275297    2.204618    0.166163
H      -1.044628    3.200464   -0.723202
H      -1.001570    1.916635   -1.936048
H      -2.753190    1.807319    0.604520
H      -4.659501    1.812631   -1.042444
H      -3.471441    1.978964   -2.436908
H      -0.261731    2.829226    1.657009
H       0.602864    1.277624    2.076848
H       2.198106    1.637866    0.151171
H       1.340824    3.192359   -0.276599
