17

C      -0.050499    1.595517    0.058746
C      -0.002535    0.055854    0.011795
C       0.671329   -0.457879   -1.171521
C       1.234700   -0.867946   -2.161821
C       1.867511   -1.327248   -3.274792
C       2.430646   -1.733289   -4.265079
C       3.113606   -2.212745   -5.464864
C       3.179502   -3.672891   -5.558055
C       3.239719   -4.868454   -5.645352
H       0.958762    2.015167    0.059128
H      -0.582588    1.993635   -0.809069
H      -0.565217    1.929542    0.964258
H       0.503308   -0.323926    0.909183
H      -1.023876   -0.345282    0.048909
H       2.608976   -1.814668   -6.356830
H       4.132534   -1.800919   -5.495106
H       3.289942   -5.926708   -5.716874
