19

C       0.020705    1.450601    0.119490
C       1.340682    0.756753   -0.046957
C       1.760593    0.108317    1.278553
C       0.439442   -0.720951    1.270046
C       0.478609   -2.291542    1.301534
C      -0.490861   -2.243956    2.488226
O       0.138080   -1.470658    3.517110
C      -0.533932   -0.774011    2.457578
C       0.037031   -0.047079   -0.044052
H      -0.245099    1.901960    1.073277
H      -0.333386    2.002611   -0.745336
H       1.998860    0.972595   -0.879355
H       2.637299   -0.536925    1.187751
H       1.911240    0.786401    2.124990
H       0.040576   -2.731452    0.401011
H       1.445181   -2.758927    1.507312
H      -1.235891   -2.967544    2.797640
H      -1.316696   -0.077002    2.736049
H      -0.471952   -0.537113   -0.866370
