17

C       0.084469    1.571198   -0.220805
C       0.044212    0.070530   -0.025988
C       1.295782   -0.768003   -0.091754
C       0.563083   -0.608860    1.221106
C       1.175100    0.190602    2.354447
O       0.216689    0.862977    3.154629
C       2.032921   -0.682866    3.188965
N       2.672364   -1.381155    3.851515
H       1.031343    2.006238    0.112171
H      -0.027616    1.819907   -1.281170
H      -0.720093    2.065781    0.332209
H      -0.847562   -0.396738   -0.435806
H       1.269561   -1.735315   -0.579865
H       2.241251   -0.244591   -0.200329
H       0.005184   -1.475595    1.567751
H       1.812513    0.982826    1.950610
H      -0.381822    0.203280    3.523767
