17

O       0.381467    1.165429   -0.606294
C       0.099950   -0.120813   -0.068905
C       0.598911   -0.321758    1.344409
C      -0.336859   -0.788880    2.172500
C      -1.649045   -0.992540    1.467851
O      -2.605040    0.070494    1.732542
C      -2.402929    0.630061    0.417104
C      -1.406167   -0.493119    0.028633
O      -1.839472   -1.378500   -0.972081
H       0.180539    1.819630    0.072046
H       0.577437   -0.820057   -0.767150
H       1.623802   -0.086092    1.612735
H      -0.203522   -0.987411    3.230062
H      -2.100263   -1.982014    1.589899
H      -3.320245    0.611042   -0.181565
H      -2.013202    1.654933    0.453343
H      -1.647541   -0.978438   -1.827931
