16

C       0.019911    1.512556   -0.046890
C      -0.047263   -0.008298    0.098005
N      -1.403026   -0.522835   -0.010718
N      -2.107889   -0.872435    1.090025
N      -3.295577   -1.259042    0.683374
C      -3.358580   -1.156144   -0.657000
O      -4.440995   -1.477340   -1.408024
C      -2.153345   -0.683183   -1.124988
O      -1.662369   -0.395086   -2.351329
H       1.054817    1.850217    0.061338
H      -0.341893    1.827416   -1.029365
H      -0.586164    1.998561    0.722309
H       0.563035   -0.498612   -0.666568
H       0.308097   -0.329262    1.079209
H      -5.120151   -1.793079   -0.799732
H      -2.340000   -0.612982   -3.001425
