16

C      -0.061132    1.516031   -0.011300
C       1.434677    1.891286   -0.020709
O       2.172961    1.469988    1.122986
C       2.265060    0.667060   -0.085581
C       1.318936   -0.473763   -0.098205
C       0.036037    0.017409   -0.033011
N      -0.823699   -1.035713    0.067207
C      -0.091051   -2.209314    0.038005
C       1.247705   -1.891926   -0.057340
H      -0.557577    1.914708    0.881540
H      -0.571199    1.937877   -0.887266
H       1.738290    2.843791   -0.448339
H       3.251106    0.640420   -0.538549
H      -1.826606   -0.986700    0.113797
H      -0.587183   -3.165765    0.077723
H       2.059490   -2.602259   -0.088662
