20

C      -0.217352    1.476160   -0.066401
N      -0.056875    0.026335   -0.045627
C       0.024023   -0.652978    1.232000
C       1.007193   -0.070983    2.277867
O      -0.081350    0.373065    3.116296
C      -1.053550   -0.299335    2.286972
C       0.021349   -0.726818   -1.198823
C      -0.069394    0.039552   -2.508971
O       0.155599   -1.938770   -1.180317
H       0.617831    1.975728   -0.569480
H      -1.145680    1.780635   -0.562065
H      -0.253751    1.844249    0.960122
H       0.140216   -1.710544    1.010438
H       1.632130   -0.820941    2.778841
H       1.641874    0.758377    1.945084
H      -1.857294    0.370626    1.960560
H      -1.494724   -1.167441    2.792658
H       0.735664    0.775294   -2.603913
H       0.007387   -0.683000   -3.320225
H      -1.017137    0.580481   -2.596352
