17

N      -0.025833    1.344194    0.083252
C       0.011853    0.083772    0.068985
O      -1.117233   -0.621752   -0.147880
C      -1.039413   -2.026797   -0.029869
C      -1.730611   -2.677523    1.172304
C      -3.164941   -2.467895    0.593427
C      -3.420159   -3.961605    0.753687
N      -1.945993   -3.977244    0.345964
C      -2.225949   -2.783384   -0.612588
H       0.908929    1.717180    0.235155
H       0.900756   -0.547445    0.206869
H      -0.044175   -2.407822   -0.285229
H      -1.427666   -2.728996    2.219060
H      -3.824940   -1.607543    0.724291
H      -3.594688   -4.354491    1.760508
H      -4.074443   -4.457718    0.029637
H      -2.500612   -2.956644   -1.653544
