19

O      -0.051566    1.452425    0.110068
C       0.021035    0.037453    0.096633
C      -1.402263   -0.496758   -0.028249
C      -1.443443   -2.018850   -0.068584
C      -1.152381   -2.803857    1.233051
O      -2.381681   -3.548796    1.117977
C      -2.816910   -2.766651    0.005816
C      -4.021284   -1.894774    0.298163
O      -4.517924   -1.747094    1.382436
H       0.838033    1.801248    0.217649
H       0.628807   -0.325837   -0.748978
H       0.485330   -0.348568    1.019128
H      -1.992189   -0.119270    0.815101
H      -1.844905   -0.077307   -0.939669
H      -0.849758   -2.390835   -0.908370
H      -0.274577   -3.459070    1.228715
H      -1.138577   -2.185946    2.140532
H      -3.050860   -3.383348   -0.875391
H      -4.419722   -1.375524   -0.606363
