15

O       0.024897    0.010521    0.266686
C      -0.011148    1.178768   -0.010055
O      -1.205171    1.742217   -0.329767
C      -1.346323    3.104812   -0.749897
C      -0.178114    3.981689   -0.367144
O       0.085595    3.902163    1.066530
C       1.348452    3.310525    0.792419
C       1.205340    3.407317   -0.691380
C       1.208900    2.040502   -0.034606
H      -1.486158    3.124927   -1.839074
H      -2.264445    3.468945   -0.278748
H      -0.338004    5.017600   -0.679392
H       2.166833    3.489892    1.477968
H       1.879576    3.714504   -1.477950
H       2.124771    1.467311   -0.119377
