17

O      -0.345091    0.100903    0.410023
C      -0.090213    1.276062    0.365525
C       1.235952    1.879574   -0.028931
N       2.302757    0.987776   -0.525071
C       2.609868    1.907599   -1.648697
C       1.950643    1.538530   -2.997205
C       0.670154    0.852455   -2.788858
N       0.684339    2.330120   -2.641013
C       1.350963    2.729033   -1.342460
H      -0.848753    2.046847    0.640843
H       1.536332    2.526982    0.813747
H       3.057234    0.793873    0.119764
H       3.611488    2.337859   -1.685356
H       2.422299    1.651230   -3.968367
H       0.115307    0.558543   -3.674545
H       0.548235    0.204785   -1.929063
H       1.336266    3.811977   -1.236615
