22

C      -0.037502    1.824627    0.744579
C      -0.494917    0.363494    0.632551
C      -0.245010   -0.218544   -0.787991
C       1.057300   -1.052394   -0.712541
O       2.211605   -0.298152   -1.083903
C       1.259727   -1.372967    0.761874
C       0.330666   -0.515520    1.571670
N       0.204543   -1.960510    1.560220
C      -0.933979   -2.704975    1.054949
H       1.017406    1.913796    0.465573
H      -0.620314    2.468067    0.077251
H      -0.155970    2.205250    1.764571
H      -1.561490    0.307891    0.883917
H      -1.081521   -0.837807   -1.123130
H      -0.132673    0.579299   -1.530337
H       0.990273   -1.960201   -1.331463
H       2.137628   -0.088255   -2.020040
H       2.278387   -1.610419    1.058397
H       0.618731   -0.085459    2.529361
H      -1.432263   -2.297505    0.164731
H      -0.607958   -3.723819    0.821323
H      -1.682070   -2.772722    1.851792
