17

O      -0.052374    1.372907   -0.016314
C      -0.002889   -0.011301   -0.025346
C      -0.484905   -0.763871    1.213066
C      -1.325754   -0.756047   -0.013198
C      -2.672980   -0.085780   -0.248688
O      -3.088299   -1.185500   -1.092706
C      -1.848790   -1.892606   -0.890585
C       1.135780   -0.566481   -0.780267
O       1.925214    0.152291   -1.353394
H       0.698128    1.650841   -0.566210
H       0.032071   -1.678618    1.489649
H      -0.782834   -0.130960    2.042721
H      -3.314576    0.020726    0.635033
H      -2.630763    0.866082   -0.789317
H      -1.320163   -2.074629   -1.834722
H      -1.998058   -2.848921   -0.371110
H       1.230446   -1.670973   -0.791603
