16

C      -0.035458    1.562772    0.038766
C       0.036881    0.053776   -0.008968
C       1.331356   -0.673591   -0.298246
O       2.523612    0.026957   -0.421452
C       0.718074   -0.736465    1.103378
O       1.405325    0.063084    2.048425
C       0.141399   -1.941971    1.616754
C      -0.312163   -2.967005    2.055812
H       0.920636    2.003118    0.324321
H      -0.300559    1.952917   -0.948991
H      -0.792313    1.900236    0.753057
H      -0.853073   -0.437893   -0.391545
H       1.306790   -1.563828   -0.918460
H       2.710676    0.392561    0.455807
H       1.899067   -0.535865    2.620558
H      -0.725775   -3.866164    2.440813
