18

O      -0.115569    1.332361    0.026838
N       0.026816   -0.068612    0.029707
C      -1.105697   -0.640375    0.010964
C      -2.509111   -0.054315    0.010660
C      -3.364613   -1.346426   -0.024985
C      -3.131484   -2.018146   -1.389041
O      -1.770859   -2.491559   -1.320553
C      -1.284776   -2.143288   -0.008788
C      -2.535778   -2.299162    0.871272
H       0.800673    1.629686    0.042848
H      -2.679835    0.532457    0.920203
H      -2.678307    0.611722   -0.840928
H      -4.414586   -1.210618    0.234186
H      -3.803893   -2.869420   -1.556302
H      -3.236380   -1.321250   -2.229335
H      -0.397142   -2.733472    0.207866
H      -2.400621   -1.931120    1.891559
H      -2.907917   -3.326244    0.889408
