15

N       0.010891    1.390397    0.028690
C      -0.097806    0.004871   -0.007742
C      -1.156610   -0.831024    0.048103
C      -0.651588   -2.185375   -0.012311
C      -1.351057   -3.407270    0.027355
C      -1.928357   -4.466296    0.068085
C       0.714863   -2.050835   -0.118455
N       1.711845   -2.982156   -0.297037
O       1.079681   -0.757897   -0.114774
H       0.485741    1.728049    0.860406
H       0.492388    1.765681   -0.782449
H      -2.189369   -0.533978    0.129900
H      -2.447049   -5.391774    0.092492
H       1.410165   -3.920811   -0.073092
H       2.589775   -2.742884    0.143857
