19

C       0.220810    1.368212   -0.388797
C       0.172140   -0.091937    0.005141
C       1.485095   -0.871544   -0.006893
C       0.822533   -0.517394    1.295906
O       1.488147    0.405971    2.108696
N      -1.105085   -0.682667   -0.341710
C      -1.246835   -1.280985   -1.667553
C      -1.264006   -2.126673   -0.443076
H       1.115015    1.848780    0.012834
H       0.226076    1.477867   -1.478650
H      -0.662359    1.890168   -0.006005
H       1.514370   -1.914820   -0.301937
H       2.376935   -0.310329   -0.263987
H       0.336636   -1.334138    1.831459
H       0.823103    0.905185    2.595190
H      -2.166095   -1.049779   -2.197950
H      -0.356745   -1.343059   -2.291120
H      -0.406652   -2.774168   -0.275091
H      -2.200444   -2.515401   -0.052502
