14

C      -0.017243    1.575188    0.037913
C       0.020715    0.080986   -0.001032
C       0.101003   -0.768519   -1.070464
N       0.215773   -0.544646   -2.423423
O       0.131906   -2.051250   -0.681560
N       0.074228   -2.097613    0.734236
C       0.006874   -0.835782    1.084874
O      -0.058776   -0.468968    2.376539
H       0.526858    2.007781   -0.808522
H      -1.038809    1.975465    0.016109
H       0.452443    1.945540    0.953515
H      -0.263868    0.279363   -2.754672
H       0.013511   -1.359317   -2.986243
H      -0.024802   -1.274996    2.908847
