22

C      -0.194401    1.549181   -0.034299
C       0.063326    0.045188   -0.006687
N       0.953442   -0.382135   -1.078476
C       1.707763   -1.488787   -0.788335
O       2.422940   -2.088924   -1.560179
C       1.441715   -1.807379    0.684609
C       0.775962   -0.535868    1.263209
C       1.866307    0.413794    1.789422
C      -0.229610   -0.846002    2.376432
H       0.737663    2.118691   -0.002887
H      -0.730482    1.827954   -0.947896
H      -0.818214    1.850386    0.812880
H      -0.910653   -0.463545   -0.101644
H       0.845313   -0.082067   -2.035278
H       0.761507   -2.667526    0.719561
H       2.363113   -2.099011    1.193117
H       2.583344    0.677409    1.005811
H       1.441725    1.339889    2.188218
H       2.421412   -0.069473    2.599907
H       0.271741   -1.297575    3.238883
H      -0.730021    0.063252    2.728212
H      -1.001268   -1.544005    2.034932
