14

C       0.022187    1.481955    0.032149
N      -0.029899    0.026675    0.014866
C      -1.175281   -0.678133   -0.149208
C      -1.189985   -2.039255   -0.160995
C       0.035759   -2.788204    0.003780
O       0.163204   -4.003180    0.012772
C       1.184898   -1.863873    0.169918
F       2.367990   -2.422035    0.330161
N       1.166165   -0.576747    0.176535
H       0.666404    1.842440   -0.773847
H      -0.985219    1.875998   -0.104148
H       0.423301    1.830040    0.987394
H      -2.071570   -0.081027   -0.269347
H      -2.119726   -2.577027   -0.293873
