17

O      -0.124712   -0.037643   -0.029117
C      -0.030343    1.165759   -0.076569
C       1.245165    1.908677   -0.038031
C       1.702932    2.955089    1.080600
C       2.978980    2.092886    1.285464
C       2.692780    1.359392   -0.043626
O       3.038495    2.182786   -1.184978
C       1.807839    2.924403   -1.095232
C       1.872140    4.031656   -0.021785
H      -0.938899    1.808581   -0.145336
H       1.102584    3.201101    1.955742
H       3.938148    2.610414    1.367395
H       2.853899    1.411019    2.132563
H       2.985755    0.318380   -0.178335
H       1.378111    3.135195   -2.076679
H       0.987344    4.674413   -0.080599
H       2.771920    4.652126   -0.006021
