21

C      -0.249464    1.488158    0.117859
C       0.041426    0.015162   -0.013493
C       0.056117   -0.582648   -1.218322
C       0.237348   -1.981593   -1.585902
C       0.214778   -3.065146   -0.793803
C       0.354002   -4.459719   -1.336544
C       0.046106   -2.944808    0.704100
O       0.864567   -1.944712    1.288315
C       0.318366   -0.650730    1.313080
H       0.607931    2.031133    0.537394
H      -0.497092    1.936802   -0.846871
H      -1.091447    1.667889    0.800266
H      -0.120719    0.070415   -2.071858
H       0.359638   -2.150338   -2.654331
H       0.418999   -4.464773   -2.427556
H       1.249714   -4.953792   -0.936550
H      -0.498858   -5.088715   -1.046434
H      -1.013636   -2.766147    0.953207
H       0.334247   -3.886319    1.185204
H       1.056961   -0.046138    1.857049
H      -0.603800   -0.621631    1.925106
