19

O       0.210078    1.404097   -0.118342
C       0.088981   -0.008666   -0.028509
C      -1.331742   -0.487397    0.017948
C      -1.907075   -1.641138   -0.791453
C      -2.492557   -0.270665   -0.926655
O      -3.412253    0.006611    0.139198
C      -2.344032   -0.137867    1.089648
C      -2.578024   -0.671940    2.459965
C      -2.219169    0.796825    2.251960
H      -0.380523    1.790607    0.535740
H       0.588997   -0.411047   -0.915304
H       0.637128   -0.396004    0.847636
H      -1.281858   -1.965317   -1.618445
H      -2.479890   -2.425529   -0.305391
H      -2.590706    0.300266   -1.841389
H      -3.603680   -0.895874    2.731556
H      -1.834432   -1.328812    2.899287
H      -1.233017    1.127312    2.565996
H      -3.007917    1.529970    2.380733
