16

C      -0.054353    1.484446    0.059849
C      -0.016665    0.030131    0.016484
C       0.030688   -1.171305   -0.022897
C       0.054237   -2.635870   -0.062796
C      -1.409980   -3.185610   -0.082128
C      -1.468885   -4.639606    0.036784
N      -1.514011   -5.788518    0.148575
C       0.823375   -3.143093   -1.202309
C       1.436138   -3.574404   -2.139967
H       0.793559    1.915549   -0.482973
H      -0.972570    1.870703   -0.395349
H      -0.012616    1.851830    1.090758
H       0.523549   -3.006517    0.859050
H      -1.963112   -2.735463    0.747545
H      -1.896609   -2.875162   -1.010915
H       1.985377   -3.957370   -2.964544
