19

C       0.431155    0.542467   -1.097974
C       0.115034   -0.566344   -0.207868
C      -0.133496   -1.482780    0.534957
C      -0.476325   -2.569028    1.459276
N      -1.372990   -3.639204    0.994504
C      -2.114818   -3.499260   -0.253335
C      -1.018994   -4.504381   -0.133809
C       0.272392   -4.379599   -0.911946
H       1.428283    0.945381   -0.888660
H       0.417295    0.227535   -2.147244
H      -0.287437    1.362131   -0.988274
H       0.441090   -3.044665    1.827824
H      -0.958571   -2.124042    2.339335
H      -3.160089   -3.797399   -0.217645
H      -1.908103   -2.624128   -0.866145
H      -1.313440   -5.538347    0.048284
H       0.517048   -3.341440   -1.142778
H       1.110214   -4.811903   -0.352340
H       0.191883   -4.931956   -1.854640
