24

C      -0.188606    1.511003    0.144420
C       0.057881    0.003934    0.022513
C       0.766382   -0.428950   -1.274918
C       2.203609    0.096675   -1.365331
C       0.694373   -1.966036   -1.398789
N       1.280837   -2.527461   -2.611346
C       2.601640   -3.135217   -2.565275
C       0.549167   -2.596725   -3.759293
O       0.922152   -3.063406   -4.816170
H       0.745487    2.079567    0.177396
H      -0.775537    1.884077   -0.702243
H      -0.743283    1.741133    1.059254
H       0.645993   -0.343115    0.883650
H      -0.907185   -0.516003    0.087557
H       0.201114   -0.013744   -2.122286
H       2.819890   -0.295372   -0.546659
H       2.669878   -0.190406   -2.311618
H       2.232252    1.188128   -1.308228
H       1.196706   -2.430897   -0.542015
H      -0.357910   -2.271229   -1.344386
H       2.616295   -3.982335   -1.868123
H       2.835905   -3.491892   -3.568475
H       3.362262   -2.415160   -2.248920
H      -0.462833   -2.165285   -3.621138
