16

N      -0.129212    1.465497    0.000019
C      -0.100285    0.035359   -0.086356
C       0.726085   -0.729776   -1.057761
C       0.132294   -1.896539   -1.325472
N      -1.082619   -2.095302   -0.516407
C      -0.435113   -2.736128    0.627846
N      -0.106512   -1.992060    1.608935
C      -0.555187   -0.674649    1.267330
C      -1.386624   -0.739364    0.028690
H       0.752421    1.827905    0.349349
H      -0.282528    1.874722   -0.917439
H       1.656030   -0.372102   -1.480963
H       0.467076   -2.708878   -1.955866
H      -0.199993   -3.792530    0.558262
H      -0.755498    0.018593    2.072503
H      -2.380800   -0.331881   -0.115084
