22

C       0.157138    1.481602   -0.126380
C       0.133588   -0.041144   -0.068560
C       1.272046   -0.743913   -0.854914
N       1.919316   -1.266264    0.399461
C       0.769584   -0.643856    1.189865
C       0.933270   -2.111939    1.130208
C      -0.017389   -3.067497    0.440820
C       1.667696   -2.741273    2.308334
O       2.597078   -3.711781    1.862565
H       1.156618    1.869961    0.098418
H      -0.127425    1.839312   -1.121603
H      -0.541459    1.915615    0.597241
H      -0.878939   -0.401696   -0.279275
H       0.998431   -1.516680   -1.579496
H       1.951752   -0.037658   -1.338637
H       0.952227   -0.079799    2.102184
H      -0.485913   -2.657775   -0.454674
H       0.520642   -3.979815    0.166256
H      -0.819421   -3.350181    1.131486
H       2.164572   -1.953286    2.893672
H       0.963699   -3.260289    2.967541
H       3.158623   -3.246025    1.229646
