15

C      -0.077957    1.551291    0.037546
C       0.143721    0.078223   -0.023438
O      -0.755904   -0.796829    0.704557
C       0.643614   -0.934407    0.942706
C       1.197953   -1.839492   -0.178669
C       0.683655   -0.767475   -1.144826
N       0.783139   -0.506322   -2.378151
O       1.430062   -1.544686   -3.069358
H       0.810213    2.087193   -0.309575
H      -0.916919    1.840099   -0.603559
H      -0.305161    1.857200    1.061754
H       1.002741   -0.807223    1.957107
H       2.288502   -1.921364   -0.208100
H       0.748737   -2.832434   -0.245491
H       1.438620   -1.212857   -3.973757
