20

C      -0.016180    1.544542   -0.192861
C      -0.021460    0.041079   -0.010951
C      -1.331041   -0.550218    0.455831
O      -1.735780    0.109110    1.642227
C      -2.944090   -0.370098    2.167308
C      -3.255612    0.410829    3.432284
O      -4.254246    0.256374    4.082923
C       0.855863   -0.797719   -0.867282
N       1.165928   -0.617771    0.562938
H       0.955791    1.889626   -0.559431
H      -0.777821    1.857619   -0.916024
H      -0.231803    2.046264    0.754399
H      -2.102142   -0.426331   -0.324372
H      -1.202319   -1.626864    0.640245
H      -3.783563   -0.251749    1.460666
H      -2.888752   -1.442898    2.421108
H      -2.466000    1.145023    3.706095
H       0.558760   -1.805676   -1.146391
H       1.467177   -0.289471   -1.608775
H       1.917992    0.058370    0.672721
