20

C       0.687863   -0.022496    0.892860
C      -0.132596    0.360266   -0.349286
C       0.625152    0.169010   -1.634168
N       0.965693    1.108440   -2.395963
O       0.871298   -1.212706   -1.800087
C       1.565915   -1.742481   -2.847171
O       2.044701   -1.110503   -3.752947
C       1.642713   -3.247092   -2.697725
C       2.408057   -3.918702   -3.834830
H       0.990099   -1.072306    0.856252
H       1.590390    0.591520    0.968066
H       0.097543    0.130433    1.800554
H      -1.043700   -0.248755   -0.387680
H      -0.428160    1.410279   -0.310368
H       1.478016    0.769117   -3.208278
H       2.098597   -3.458238   -1.722897
H       0.615272   -3.623151   -2.623073
H       1.936064   -3.715290   -4.799212
H       3.435092   -3.549186   -3.888278
H       2.437189   -5.001203   -3.685303
