17

C       0.025752    1.159694   -0.501429
C       0.082698   -0.187702    0.261774
C       0.768136   -0.035697    1.550518
C       1.345958    0.112119    2.593009
C      -1.256547   -0.764233    0.429728
C      -2.360443   -1.226078    0.544891
C      -3.701890   -1.792564    0.700904
C      -4.053242   -2.763060   -0.337867
C      -4.353423   -3.559932   -1.184007
H       1.036492    1.547773   -0.649707
H      -0.450314    1.015597   -1.474344
H      -0.551215    1.892474    0.066894
H       0.673086   -0.887730   -0.347346
H       1.851653    0.231208    3.519095
H      -3.782718   -2.271842    1.686350
H      -4.444650   -0.982859    0.705369
H      -4.614103   -4.263680   -1.935123
