14

N      -0.073382    1.290754   -0.211630
C      -0.009270    0.049064    0.003197
O       1.145229   -0.674957    0.196776
C       0.756619   -2.001029    0.579263
C      -0.020546   -1.927691    1.909601
N      -1.330364   -1.857178    1.175812
C      -0.619321   -2.269578   -0.079326
C      -1.159659   -0.899730    0.023026
H       0.861004    1.703926   -0.219480
H       1.604514   -2.670018    0.453544
H      -0.001889   -2.862940    2.473662
H       0.207141   -1.081440    2.564916
H      -0.947266   -3.065083   -0.736278
H      -2.095653   -0.594682   -0.423204
