21

C      -0.200363    1.575194   -0.049841
C       0.002474    0.057721    0.092716
O       0.690157   -0.236647    1.278136
C      -1.337106   -0.686743    0.074379
O      -1.673527   -1.303408    1.072328
C      -2.151390   -0.621931   -1.158934
C      -3.183775   -1.712200   -1.410468
C      -3.665303   -0.339603   -1.092652
C      -4.375390   -0.019216    0.202732
H       0.772604    2.069166    0.007885
H      -0.668694    1.838942   -1.002648
H      -0.823383    1.950981    0.767374
H       0.583209   -0.300979   -0.774761
H       0.076024   -0.787559    1.791726
H      -1.639886   -0.212299   -2.022943
H      -3.268290   -2.090138   -2.423004
H      -3.255702   -2.457307   -0.625170
H      -4.006984    0.243307   -1.944356
H      -3.967080   -0.596565    1.033928
H      -4.290200    1.044701    0.448438
H      -5.441141   -0.254940    0.110467
