16

C       0.347175   -0.159834   -1.157918
C       0.175163    0.552216   -0.204780
C       0.023918    1.418128    0.967225
N       1.225196    2.195411    1.311023
C       1.569450    3.255922    0.482665
C       2.754882    3.703359   -0.021247
C       2.448817    4.930698   -0.703149
C       1.115083    5.123014   -0.575748
O       0.561420    4.103633    0.160506
H       0.486236   -0.783001   -2.006524
H      -0.793855    2.126605    0.811394
H      -0.243438    0.815775    1.841966
H       2.024615    1.596176    1.470035
H       3.714945    3.221412    0.069452
H       3.139858    5.571506   -1.228344
H       0.422308    5.868915   -0.924873
