18

O      -0.649566    0.824530   -0.618041
C       0.148181    1.014747    0.264258
C       1.360208    1.921974    0.161314
C       1.400750    2.854786   -1.071818
C       1.440905    4.178077   -0.318763
C       2.329598    3.978761    0.951771
C       1.440094    4.947646    1.749546
C       0.504172    4.050141    0.922423
N       1.371150    2.848012    1.329208
H       0.042471    0.526369    1.257539
H       2.244877    1.274731    0.240780
H       2.283122    2.696283   -1.698110
H       0.510443    2.735394   -1.694667
H       1.482417    5.111739   -0.883832
H       3.411290    3.834806    1.003066
H       1.417441    4.799996    2.829857
H       1.485180    6.000928    1.468555
H      -0.585850    3.991433    0.940845
