15

N      -0.105291    1.262018   -0.082157
C      -0.001736   -0.000138    0.007565
C      -1.235944   -0.938175    0.033146
C      -0.573217   -2.276246   -0.023979
C       0.792734   -2.152302    0.002615
N       1.151376   -0.795305    0.102727
C       1.304342   -3.459382   -0.013447
N       0.295967   -4.343305   -0.054634
N      -0.833270   -3.602922   -0.048107
H       0.808053    1.719234   -0.081910
H      -1.810480   -0.764918    0.949915
H      -1.892772   -0.703781   -0.809763
H       2.043934   -0.433908   -0.191391
H       2.323370   -3.813622   -0.007362
H      -1.719375   -4.076976   -0.079217
