12

O      -0.018349    0.042498   -0.337875
C       0.096021    1.207631   -0.181248
C      -0.848248    2.436664   -0.067210
O       0.328881    3.289703    0.059658
C       1.278438    2.212949   -0.019961
C       2.097548    2.054512    1.176159
N       2.735278    1.910776    2.129024
C      -1.683928    2.729936   -1.207970
C      -2.372112    2.950342   -2.167590
H      -1.426537    2.430424    0.866499
H       1.916068    2.283520   -0.910297
H      -2.986115    3.151053   -3.011603
