23

C       0.436370    1.561669   -0.177390
C      -0.001065    0.122539    0.155179
C       0.276374   -0.881996   -0.993278
C       1.561450   -1.632603   -0.578776
C       1.658096   -1.399723    0.916283
C       2.689034   -2.141346    1.713758
C       0.786992   -0.461570    1.318863
C       0.560989    0.085179    2.706338
O       0.804792   -0.827882    3.769343
H       1.499550    1.595517   -0.439986
H      -0.135652    1.957346   -1.023503
H       0.281763    2.236851    0.671190
H      -1.073855    0.151960    0.392293
H      -0.553858   -1.591201   -1.068598
H       0.365397   -0.388086   -1.965297
H       1.525418   -2.699976   -0.830697
H       2.456650   -1.238251   -1.081982
H       3.692734   -1.933963    1.318655
H       2.665690   -1.870541    2.768808
H       2.548289   -3.226972    1.624721
H       1.223736    0.937904    2.902800
H      -0.467920    0.479436    2.765805
H       0.311352   -1.630326    3.569053
