13

C       0.021677    1.376755   -0.032071
O       0.007220   -0.059780   -0.049462
C       0.583692   -0.653288   -1.073295
N       0.659357   -1.938404   -1.248347
C       1.341763   -1.997010   -2.440836
N       1.595230   -3.198328   -3.045995
N       1.681659   -0.842436   -2.974883
O       1.144791    0.088600   -2.026506
H       1.048057    1.752107   -0.016724
H      -0.500615    1.778082   -0.904228
H      -0.497956    1.658340    0.882778
H       1.647027   -3.977909   -2.408683
H       2.322482   -3.180875   -3.744783
