19

C      -0.026248    1.531564   -0.022036
C      -0.011213    0.027806   -0.003749
C      -0.067103   -0.719873   -1.172994
N      -0.056515   -2.054584   -1.206262
C       0.012766   -2.669685   -0.022957
C       0.027805   -4.173607   -0.013791
N       0.070944   -2.055909    1.167361
C       0.059595   -0.721566    1.184531
C       0.125577   -0.056056    2.532443
H       0.875751    1.952795    0.437057
H      -0.085027    1.907032   -1.047361
H      -0.881332    1.936410    0.531797
H      -0.123629   -0.215612   -2.137453
H       0.940653   -4.541596    0.465568
H      -0.814050   -4.558763    0.570372
H      -0.028824   -4.558517   -1.032199
H       1.004017    0.595284    2.610027
H      -0.752078    0.578024    2.704507
H       0.175027   -0.815013    3.313612
