18

C      -0.035303    1.402575    0.048572
C       1.399249    1.951635    0.010832
O       2.249413    1.354913   -0.955455
C       1.917093    1.554551   -2.295688
O       0.717620    0.935531   -2.689925
C       0.601979   -0.436151   -2.315876
C      -0.427976   -0.599543   -1.199697
O      -0.065252   -0.014350    0.034487
H      -0.491014    1.737270    0.991125
H      -0.629795    1.809960   -0.775870
H       1.357453    3.045295   -0.126843
H       1.889705    1.748492    0.967073
H       1.777711    2.619831   -2.532078
H       2.772237    1.152341   -2.857301
H       0.261022   -0.996893   -3.196223
H       1.569278   -0.837113   -1.994933
H      -1.389932   -0.191124   -1.548822
H      -0.568424   -1.667672   -0.997967
