25

C      -0.048218    1.536945   -0.051638
C       0.014558    0.007622    0.073848
C       0.840193   -0.405781    1.301627
C      -1.403544   -0.588801    0.079395
C      -1.463291   -2.118838   -0.025160
C      -2.919113   -2.604683    0.041619
C      -3.611526   -2.023673    1.281798
C      -3.425178   -0.505703    1.319612
O      -2.057190   -0.141366    1.264830
H       0.956979    1.968314   -0.094086
H      -0.582555    1.840215   -0.958716
H      -0.571103    1.969640    0.805980
H       0.506971   -0.389511   -0.824948
H       0.341068   -0.092004    2.222469
H       0.992337   -1.487929    1.351652
H       1.828830    0.063359    1.271547
H      -1.944951   -0.174364   -0.792748
H      -0.988186   -2.440940   -0.959219
H      -0.894296   -2.561803    0.800195
H      -3.454376   -2.276110   -0.860110
H      -2.961047   -3.699106    0.048923
H      -4.680528   -2.265999    1.288364
H      -3.172296   -2.455957    2.189426
H      -3.970692   -0.043131    0.477659
H      -3.818042   -0.077380    2.246891
