16

C       0.243054    1.492762    0.132873
C      -0.084869   -0.002253    0.006065
O      -1.479089   -0.234892   -0.027254
C       0.604171   -0.593759   -1.192495
N      -0.082980   -1.044817   -2.206253
O       0.924547   -1.456847   -3.118876
C       2.086596   -1.195606   -2.510347
N       3.227039   -1.459878   -3.192612
N       1.969909   -0.664856   -1.322579
H       1.322124    1.648581    0.216332
H      -0.122916    2.037504   -0.743355
H      -0.248873    1.894305    1.022146
H       0.299413   -0.519404    0.894780
H      -1.755190   -0.251762   -0.951291
H       3.167019   -2.123762   -3.947700
H       4.066865   -1.490783   -2.637706
