16

C      -0.249748    1.497366   -0.325472
C       0.011498    0.031873   -0.074384
O       1.291534   -0.409428   -0.727378
C       1.838335   -0.525200    0.515519
N       2.984601   -0.295710    1.000286
C       2.709074   -0.037946    2.432827
C       1.191243    0.361453    2.510964
O       0.671488    1.087546    3.304922
C       0.592584   -0.409273    1.309090
H       0.587587    2.110872    0.018000
H      -0.399910    1.679837   -1.392913
H      -1.150840    1.808485    0.212074
H      -0.800587   -0.607596   -0.425474
H       2.891937   -0.913216    3.071235
H       3.340035    0.775483    2.801947
H       0.151439   -1.341002    1.673292
