19

C       0.118010    1.592044   -0.177430
C       0.047510    0.075328   -0.010858
O       0.487030   -0.480830   -1.246661
C       0.771415   -1.863325   -1.196170
C       1.977075   -2.128171   -0.289254
C       1.771887   -1.417285    1.012642
C       0.869217   -0.434945    1.158359
C       0.629888    0.084972    2.516185
O      -0.233677    0.875113    2.827395
H       1.156148    1.910412   -0.310547
H      -0.447761    1.880367   -1.067073
H      -0.302412    2.086933    0.698281
H      -1.004624   -0.210780    0.164365
H      -0.099936   -2.429423   -0.827968
H       0.967583   -2.176917   -2.225034
H       2.110198   -3.203929   -0.120099
H       2.898764   -1.774654   -0.771713
H       2.350421   -1.738522    1.877541
H       1.319539   -0.338030    3.282353
