17

O      -0.484676    1.540080   -1.260810
C      -0.625026    0.154111   -1.277639
C      -1.512601   -0.333738   -0.140105
O      -1.930147    0.476703    0.664278
C      -1.803576   -1.810761   -0.104937
C      -2.394303   -2.541393    1.133482
C      -3.773515   -1.876186    0.913058
C      -3.227946   -2.389251   -0.437381
O      -2.815977   -3.639946    0.226210
H      -0.958983    1.831317   -0.465029
H      -1.057406   -0.195438   -2.230496
H       0.349712   -0.356599   -1.182367
H      -1.022746   -2.386984   -0.607080
H      -1.885445   -2.815032    2.057099
H      -4.615398   -2.451755    1.298009
H      -3.855700   -0.803543    1.076840
H      -3.706476   -2.465464   -1.413917
