19

C       0.019455    1.494096   -0.144497
C      -0.019316   -0.035531   -0.106548
C      -1.409799   -0.595242    0.166935
O      -2.327391   -0.147439   -0.865205
C      -3.140507   -1.156985   -1.301279
N      -4.172057   -1.009813   -2.013991
C      -2.623732   -2.450733   -0.775849
N      -1.203987   -2.668402   -1.172891
C      -1.520259   -2.111848    0.150804
H       1.033048    1.853206   -0.344944
H      -0.639556    1.878357   -0.927143
H      -0.304894    1.925313    0.809419
H       0.331935   -0.457988   -1.052756
H       0.648618   -0.409663    0.680423
H      -1.790748   -0.215147    1.125637
H      -4.335361   -0.019669   -2.205881
H      -3.296231   -3.290022   -0.662094
H      -0.999416   -3.660920   -1.077716
H      -1.312033   -2.676770    1.052267
