18

O      -0.107973    1.344673    0.008427
N       0.027286   -0.058431    0.004168
C      -1.114136   -0.635410    0.011305
C      -1.236832   -2.153559    0.008691
C      -2.754975   -2.394008    0.019552
C      -3.399186   -3.545059   -0.729070
C      -3.387912   -3.548395    0.772651
C      -3.372681   -1.047695    0.027206
C      -2.459085   -0.063787    0.022630
H       0.810233    1.633327    0.002282
H      -0.757539   -2.581509   -0.877042
H      -0.744244   -2.585649    0.885068
H      -4.339164   -3.359535   -1.238252
H      -2.736630   -4.228682   -1.249741
H      -2.717632   -4.234298    1.280275
H      -4.320132   -3.365163    1.296708
H      -4.448757   -0.907485    0.035553
H      -2.649826    0.998992    0.026479
