21

C      -0.131526    1.571250   -0.374984
O      -0.297139    0.173833   -0.273460
C       0.674276   -0.611034   -0.940816
C       0.657674   -0.408892   -2.454590
C       2.107926   -0.587013   -0.317759
C       2.080385   -2.153100   -0.243850
C       0.538050   -2.093119   -0.514300
C       2.861124   -2.829024   -1.262640
C       3.505736   -3.384962   -2.113256
H       0.877294    1.890206   -0.072456
H      -0.322995    1.948533   -1.389116
H      -0.857024    2.025553    0.304553
H       0.975179    0.600960   -2.732811
H       1.339239   -1.114410   -2.937602
H      -0.351656   -0.576830   -2.844375
H       2.912510   -0.143764   -0.906893
H       2.095214   -0.146883    0.681864
H       2.342615   -2.554584    0.738525
H      -0.033592   -2.169838    0.412250
H       0.141462   -2.790731   -1.253592
H       4.078408   -3.881623   -2.856601
