21

C       0.006217    1.383264    0.289748
N      -0.002347    0.053741   -0.296257
C       1.206785   -0.705894   -0.055823
C      -1.197488   -0.670302   -0.169941
C      -1.323933   -2.039387   -0.001905
N      -2.669549   -2.352782   -0.003706
C      -3.211407   -3.673052    0.217306
C      -3.392831   -1.203142   -0.144744
C      -2.523419   -0.142192   -0.252326
H       0.926400    1.898717   -0.002028
H      -0.834884    1.969369   -0.086834
H      -0.050527    1.375164    1.392923
H       1.289844   -1.080431    0.981394
H       1.242535   -1.568028   -0.729555
H       2.078163   -0.078479   -0.263266
H      -0.584076   -2.812495    0.115685
H      -3.082239   -3.998802    1.256915
H      -4.278759   -3.666299   -0.013048
H      -2.723321   -4.403082   -0.436606
H      -4.471267   -1.230586   -0.159366
H      -2.807339    0.887360   -0.399221
