14

O      -0.031545    0.038303    0.092313
C      -0.054613    1.234892    0.056426
C      -1.303190    2.123852   -0.026309
C      -0.745732    3.519236   -0.010697
C       0.585166    3.549233    0.042779
C       1.204169    2.166558    0.068207
C       2.082532    1.915297    1.201536
C       2.795361    1.721281    2.149118
H      -1.866023    1.881962   -0.937285
H      -1.975586    1.904536    0.812910
H      -1.379465    4.397925   -0.040818
H       1.196623    4.442433    0.073132
H       1.758389    1.961490   -0.860852
H       3.428199    1.540587    2.982437
