16

C       0.076380    1.488829   -0.034311
C       1.338808    0.691195    0.024518
N      -0.004143    0.027532   -0.032633
C      -0.178519   -0.613015   -1.376356
C       1.099187   -0.292374   -2.103246
C       1.941014    0.404024   -1.288727
N       3.064287    0.649332   -2.035718
C       2.829260    0.081155   -3.268354
N       1.644156   -0.490971   -3.344312
H      -0.315057    1.960969    0.864013
H      -0.120632    2.024969   -0.960973
H       1.896826    0.589111    0.951333
H      -0.333707   -1.688384   -1.230826
H      -1.078269   -0.215107   -1.858516
H       3.894989    1.145012   -1.759775
H       3.568475    0.111296   -4.055109
