16

C       0.175272    1.742795   -0.650997
N      -0.058547    0.370816   -1.054048
C       0.119234   -0.531614   -0.188234
N      -0.089814   -1.868845   -0.515575
C       0.079913   -2.910817    0.356747
O       0.432125   -2.771620    1.514466
C      -0.201584   -4.304627   -0.203534
O       0.008286   -5.268743    0.781660
H       0.491961    1.851222    0.397714
H       0.943748    2.185874   -1.294477
H      -0.739242    2.327716   -0.800910
H       0.435329   -0.389114    0.848812
H      -0.383206   -2.049305   -1.465945
H      -1.239042   -4.331746   -0.575597
H       0.453182   -4.473292   -1.074316
H       0.281306   -4.767147    1.567711
