18

O      -0.044969    1.517088   -0.012961
C       0.040864    0.108470    0.058504
C       0.659258   -0.525813   -1.205377
C      -0.094868   -0.224781   -2.417913
N      -0.695388    0.009645   -3.376594
C       0.822154   -0.326776    1.296966
C       0.128784   -0.140890    2.661363
C       0.208517   -1.679210    2.749262
O       0.840832   -1.762258    1.448010
H       0.842850    1.875379   -0.128573
H      -0.992762   -0.241360    0.152739
H       1.690952   -0.171228   -1.331411
H       0.709949   -1.610316   -1.062385
H       1.845397    0.079422    1.239774
H       0.703452    0.403319    3.410915
H      -0.875602    0.281007    2.603515
H       0.858384   -2.076069    3.537197
H      -0.746515   -2.215647    2.770676
