11

N       0.006607    1.422097   -0.221037
C       1.301777    0.759257    0.058538
C       0.050979   -0.030326    0.067818
C       0.515172   -0.765136   -1.245636
O       0.759420    0.205978   -2.260753
C       1.751570    0.015012   -1.254615
H      -0.275635    1.879313    0.646850
H       1.945048    1.060739    0.873995
H      -0.489158   -0.475915    0.892052
H       0.295566   -1.781933   -1.546599
H       2.760698   -0.226462   -1.564504
