15

C       0.004214    1.361784    0.258125
N      -0.027863   -0.022129   -0.176495
C      -1.161993   -0.773693   -0.045728
N      -1.217395   -2.092885   -0.070404
C      -2.563064   -2.341020    0.043349
N      -3.333098   -1.264923    0.142172
N      -2.410464   -0.260127    0.087159
C      -3.102691   -3.654287    0.058512
C      -3.550126   -4.769966    0.071394
H       1.009892    1.755691    0.103086
H      -0.676310    1.968521   -0.350765
H      -0.263615    1.494995    1.316931
H       0.808758   -0.565064   -0.027883
H      -2.716127    0.696512    0.128232
H      -3.947037   -5.754637    0.081047
