25

C       0.027657    1.559157   -0.014255
C      -0.005712    0.021241    0.027872
C       0.825997   -0.468693    1.224616
C      -1.460286   -0.555209    0.041896
C      -1.442119   -2.084592    0.154990
O      -2.157718   -0.111771    1.216547
C      -2.228626   -0.107889   -1.222101
C      -3.656648   -0.634678   -1.335525
O      -4.299251    0.121564   -2.356227
H       1.063772    1.910292   -0.034868
H      -0.473195    1.975067   -0.891713
H      -0.433303    1.992621    0.882003
H       0.465106   -0.345842   -0.894560
H       0.299338   -0.264098    2.161900
H       1.032533   -1.540499    1.178191
H       1.790439    0.047946    1.255623
H      -0.983057   -2.396941    1.093946
H      -2.458318   -2.484271    0.141994
H      -0.883211   -2.529711   -0.674044
H      -2.291906    0.838604    1.138952
H      -2.303731    0.985170   -1.234963
H      -1.663376   -0.386977   -2.119065
H      -3.661133   -1.705536   -1.586215
H      -4.164179   -0.517065   -0.367028
H      -5.197576   -0.208555   -2.449368
