17

O       0.071732    1.620081   -0.182057
C      -0.004099    0.223454    0.012175
C       0.187066   -0.321594    1.474958
C      -1.086190   -1.185132    1.283283
C      -1.474977   -0.287243    0.080598
C       0.810779   -0.506683   -0.949392
C       1.510375   -1.111132   -1.729687
C       2.343617   -1.802863   -2.677267
O       2.405465   -3.006413   -2.785821
H       0.996896    1.863828   -0.297534
H       1.127694   -0.822341    1.709717
H       0.023804    0.506722    2.168864
H      -0.845179   -2.203777    0.972068
H      -1.787480   -1.228617    2.117453
H      -2.107751    0.551995    0.378938
H      -1.883933   -0.754406   -0.815814
H       2.945682   -1.131567   -3.323241
