19

C       0.135016    1.282315   -0.186009
O      -0.304498   -0.013062    0.184351
C       0.483622   -0.591809    1.187805
C       0.085246   -2.008695    1.584229
C       0.250603   -2.910943    0.412784
C       1.502778   -2.559383    1.211532
C       2.385889   -3.586394    1.858545
C       1.900966   -1.164406    0.840824
O       2.952696   -0.645790    0.579165
H       1.162609    1.269697   -0.570032
H      -0.540525    1.636456   -0.967799
H       0.090861    1.977781    0.666515
H       0.581552    0.082675    2.055520
H      -0.496595   -2.269453    2.458382
H      -0.070994   -3.938384    0.552576
H       0.100533   -2.526278   -0.590014
H       1.799042   -4.424924    2.246292
H       3.103984   -3.988188    1.135864
H       2.956375   -3.154176    2.686679
