25

C       0.114017    1.447085    0.189289
C      -0.106302   -0.022069    0.487033
C       0.831354   -1.091005   -0.040227
C       1.955045   -0.793553   -1.013750
C       0.788438   -0.786969    1.448759
C       1.832217   -0.156299    2.336473
C       1.219436    0.617997    3.494636
C       3.077984   -0.956714    2.654789
C       3.186604    0.317957    1.855538
H       1.160229    1.741667    0.298501
H      -0.201178    1.698063   -0.830280
H      -0.470295    2.071340    0.874189
H      -1.158706   -0.295675    0.512731
H       0.339729   -2.031815   -0.279282
H       2.319934    0.232808   -0.949168
H       2.808696   -1.464873   -0.868342
H       1.598329   -0.941150   -2.039458
H       0.252153   -1.554782    2.006820
H       0.535012   -0.015796    4.071147
H       1.991098    0.983145    4.180130
H       0.648935    1.482569    3.139083
H       3.440940   -0.962023    3.677556
H       3.222535   -1.892258    2.124919
H       3.453390    0.237665    0.811591
H       3.603298    1.191633    2.347073
