21

C       0.268238    1.423546   -0.227693
C       0.019467   -0.056647    0.019940
C      -1.464823   -0.402224   -0.004134
O       0.736262   -0.870378   -0.962248
C       1.443516   -1.592138    0.059270
C       2.928155   -1.244985    0.131043
O       3.002425    0.007761    0.803662
C       1.985298   -0.001583    1.800732
C       0.799202   -0.744706    1.184614
H       1.338136    1.639470   -0.237944
H      -0.149548    1.707161   -1.199207
H      -0.215771    2.037867    0.539483
H      -1.898988   -0.138420   -0.973646
H      -1.618484   -1.473334    0.157126
H      -2.005335    0.146048    0.775506
H       1.251219   -2.669244    0.014887
H       3.466906   -2.024907    0.695550
H       3.385355   -1.132871   -0.854952
H       2.330469   -0.532581    2.703357
H       1.777259    1.036620    2.072400
H       0.174562   -1.249169    1.922199
