17

C      -0.131652    1.467278    0.136467
O       1.143675    0.859979   -0.076522
C      -0.008116    0.007196    0.026974
C      -0.315058   -0.942481    1.147794
C      -0.516579   -2.161018    0.599504
C      -1.944672   -2.544921    0.206745
C      -1.474589   -1.961730   -1.183398
C      -0.036848   -2.226946   -0.862255
C      -0.374173   -0.817611   -1.198884
H      -0.274964    1.930914    1.112471
H      -0.532579    2.031919   -0.705935
H      -0.853672   -0.594199    2.024220
H      -2.149554   -3.612344    0.070522
H      -2.757056   -2.066729    0.760840
H      -1.979895   -2.185943   -2.119855
H       0.686006   -2.895476   -1.309130
H      -0.183259   -0.411111   -2.189164
