19

O       0.238889    1.526948    0.466333
C       0.157447    0.208931   -0.054054
C      -1.233917   -0.421723    0.118112
C      -2.252182    0.025086   -0.921556
C      -2.091600    1.157383   -1.848315
O      -1.897631   -0.182959   -2.294232
C      -1.158390   -1.937701    0.086870
C      -1.015790   -2.733624    1.310979
O      -2.275899   -2.636332    0.642601
H      -0.452549    2.055977    0.057933
H       0.453748    0.166920   -1.112808
H       0.891341   -0.372421    0.512052
H      -1.609254   -0.127656    1.106308
H      -3.273023   -0.280288   -0.689781
H      -2.976507    1.659589   -2.237224
H      -1.190538    1.769992   -1.838958
H      -0.794777   -2.361558   -0.849907
H      -0.539902   -3.712144    1.271215
H      -0.958662   -2.228127    2.274465
