19

C       0.150797    1.596497    0.119018
C      -0.023857    0.077361    0.022997
O       0.664160   -0.396719   -1.141050
C       1.464263   -1.533550   -0.821268
C       1.450766   -1.603252    0.679614
C       0.619166   -0.688828    1.159899
C      -1.510983   -0.270350   -0.083386
C      -2.153614   -0.526009   -1.376562
O      -1.820472   -1.598975   -0.486223
H       1.210446    1.844689    0.215664
H      -0.240761    2.079505   -0.780986
H      -0.382330    1.999388    0.986478
H       1.041672   -2.442685   -1.274982
H       2.471457   -1.388985   -1.237682
H       2.031957   -2.319482    1.246406
H       0.375284   -0.505398    2.198586
H      -2.124254    0.107609    0.737693
H      -3.219034   -0.335025   -1.497684
H      -1.547917   -0.476584   -2.277066
