19

O       0.014081    0.069414   -0.054783
C      -0.017146    1.268073    0.023376
C      -1.219119    2.204726    0.066553
C      -0.711388    3.244798    1.070403
O       0.724777    3.291491    0.912327
C       1.143875    2.257320    0.021264
C       1.247132    2.792367   -1.426104
C      -0.048775    3.545152   -1.786486
C      -1.325284    2.780552   -1.376401
H      -2.138773    1.704342    0.371388
H      -1.114118    4.248871    0.894675
H      -0.951215    2.953048    2.101228
H       2.080616    1.826073    0.380402
H       2.111868    3.457672   -1.516191
H       1.417239    1.943186   -2.100032
H      -0.031716    4.513397   -1.276228
H      -0.075305    3.760551   -2.859315
H      -1.509505    1.947318   -2.064894
H      -2.195531    3.443289   -1.440355
