17

O      -0.030249   -0.027033   -0.082040
C      -0.032359    1.171821    0.020621
C      -1.283601    2.057829    0.150927
C      -0.756328    3.446000    0.471599
O      -0.336739    3.565083    1.859880
C       1.056789    3.680505    1.497579
C       1.772542    2.314706    1.482229
C       1.212419    2.061340    0.031809
C       0.716847    3.535279   -0.006140
H      -1.812441    2.045770   -0.811318
H      -1.968798    1.670376    0.908800
H      -1.431843    4.261398    0.196785
H       1.539639    4.534688    1.977181
H       2.860694    2.421187    1.466147
H       1.488962    1.606640    2.264176
H       1.948719    1.717129   -0.693565
H       1.013549    4.209933   -0.805290
