14

C      -0.038970    1.476611    0.023215
C       0.001230   -0.023285    0.002708
N       0.137320   -0.633463   -1.195284
C       0.180905   -1.945451   -1.174167
C       0.081676   -2.652313    0.043177
N       0.183530   -4.021913    0.113603
N      -0.071987   -1.989396    1.190069
N      -0.104238   -0.659618    1.166866
H       0.884575    1.890227   -0.394778
H      -0.863713    1.847058   -0.593995
H      -0.163401    1.832289    1.046291
H       0.293873   -2.469624   -2.122828
H      -0.106215   -4.548539   -0.695304
H      -0.115456   -4.411052    0.996483
