12

O      -0.026176   -0.057838    0.006151
C      -0.026341    1.138072    0.006221
C       1.311430    1.910944   -0.000902
O       2.370043    1.348282   -0.014768
N       1.221454    3.319210    0.008651
C       0.135128    4.186402    0.028390
N       0.530316    5.420334    0.030185
N       1.927157    5.414112    0.013113
C       2.311182    4.176388    0.000958
H      -0.961123    1.731150    0.010352
H      -0.892949    3.865592    0.039786
H       3.323814    3.808704   -0.013844
