20

C      -0.168494    1.494359    0.008545
C       0.041482   -0.002607    0.046681
C       1.386352   -0.634696   -0.259773
C       0.820606   -0.700739    1.130101
C       1.454648    0.017369    2.295595
O       0.214589   -1.939388    1.501807
C       1.050596   -2.983943    1.753381
N       0.306596   -4.100318    2.023651
O       2.257059   -2.946240    1.714655
H       0.727267    2.042308    0.315088
H      -0.415314    1.819803   -1.007844
H      -0.989552    1.802518    0.665375
H      -0.811440   -0.582414   -0.296099
H       1.410411   -1.548813   -0.840521
H       2.237928    0.019863   -0.416427
H       1.847896    0.989029    1.988514
H       0.721587    0.182669    3.092658
H       2.281557   -0.575644    2.692794
H      -0.666632   -3.987971    2.251270
H       0.802055   -4.870639    2.438282
