14

O      -0.173878    1.474636    0.125682
N       0.034945    0.082595    0.136321
C      -1.041353   -0.548460    0.003625
C      -2.559917   -0.500821   -0.105712
C      -2.467298   -1.625143   -1.173930
C      -1.517095   -2.003140   -0.003709
O      -2.576842   -1.560768    0.949318
C      -0.768454   -3.264624    0.293548
O      -0.227357   -3.920386   -0.556791
H       0.722178    1.811557    0.236152
H      -3.259675    0.324107   -0.007236
H      -3.357555   -2.252700   -1.233962
H      -2.021129   -1.392457   -2.142006
H      -0.746525   -3.534111    1.370546
