16

O       0.066816    1.115124   -0.751509
C       0.128690   -0.071668    0.028017
C      -1.260255   -0.589787    0.309347
O      -1.891910   -1.335829   -0.752018
C      -1.633148   -2.006754    0.475396
C      -0.699870   -3.180313    0.453842
C      -0.576187   -4.025306   -0.743367
O       0.466149   -3.124659   -0.358952
H      -0.303515    0.869626   -1.606245
H       0.729383   -0.850341   -0.450547
H       0.610536    0.210476    0.970878
H      -1.922437    0.152398    0.759757
H      -2.525904   -2.210690    1.073573
H      -0.549125   -3.640604    1.431864
H      -0.340776   -5.082747   -0.639568
H      -1.121900   -3.737555   -1.638892
