25

C       0.076302    1.582919   -0.022569
C       0.020528    0.053144    0.005477
C      -1.410146   -0.495921    0.009957
C      -1.468729   -2.028053    0.029731
C      -2.899678   -2.603937    0.032371
C      -2.890108   -4.141824   -0.109422
C      -4.281006   -4.755753   -0.296621
C      -3.591348   -2.231101    1.328379
O      -4.616472   -1.608868    1.433188
H       1.108944    1.945419   -0.023709
H      -0.417421    1.980459   -0.916227
H      -0.427246    2.013124    0.850222
H       0.560315   -0.350159   -0.861792
H       0.553200   -0.317483    0.891409
H      -1.950751   -0.090945    0.876113
H      -1.946139   -0.125256   -0.874432
H      -0.937531   -2.426747   -0.843790
H      -0.927882   -2.406918    0.909138
H      -3.480377   -2.162876   -0.786572
H      -2.252271   -4.402127   -0.962423
H      -2.404784   -4.578643    0.774326
H      -4.218484   -5.844320   -0.387185
H      -4.941873   -4.527400    0.545705
H      -4.761994   -4.370866   -1.202063
H      -3.053238   -2.603710    2.236177
