19

O       0.186718    1.331864    0.012092
C       0.017024   -0.070667   -0.083636
C      -1.413522   -0.515862   -0.038778
C      -2.507154    0.250325   -0.100142
C      -3.785545   -0.552837    0.028372
C      -3.295431   -1.996259    0.095917
C      -2.528249   -2.552563   -1.088412
C      -1.781657   -1.967307    0.088144
O      -1.029129   -2.787443    0.933980
H      -0.229703    1.610985    0.834666
H       0.476095   -0.361013   -1.038869
H       0.577535   -0.604297    0.701669
H      -2.498191    1.321491   -0.263889
H      -4.349573   -0.273077    0.928241
H      -4.460575   -0.385046   -0.821103
H      -3.810190   -2.712368    0.724583
H      -2.525224   -3.635097   -1.173992
H      -2.526301   -2.013197   -2.030725
H      -0.365824   -3.239804    0.402908
