18

C      -0.211644    1.660502   -0.098575
C       0.062813    0.156535   -0.009020
N      -1.153823   -0.654040   -0.065644
C      -1.613523   -1.041620   -1.384359
C      -1.798976   -0.927290    1.113900
C      -3.060779   -1.779629    1.055763
O      -1.375671   -0.508180    2.180572
H       0.728878    2.220563   -0.086618
H      -0.744982    1.920784   -1.019028
H      -0.813439    1.980645    0.755516
H       0.714425   -0.165114   -0.829686
H       0.562258   -0.070023    0.934345
H      -2.559711   -1.576179   -1.328577
H      -1.764120   -0.161684   -2.023184
H      -0.881538   -1.692931   -1.880758
H      -2.883852   -2.750647    0.583158
H      -3.387512   -1.936928    2.083014
H      -3.863251   -1.279521    0.503797
