20

O      -0.145326    1.468055    0.148242
C       0.016667    0.060444    0.012746
C       0.829700   -0.559067    1.175474
C       0.452620   -2.034164    1.396506
C      -0.004896   -2.698257    0.061180
C      -1.389210   -2.030767    0.328392
C      -1.034080   -2.114797    1.838063
C      -1.387971   -0.558322   -0.114498
H       0.730231    1.868233    0.147935
H       0.558748   -0.151251   -0.920994
H       1.901877   -0.456982    0.963515
H       0.627243    0.013662    2.088805
H       1.197869   -2.555331    2.002473
H       0.530690   -2.462052   -0.862624
H      -0.066111   -3.784880    0.164961
H      -2.285693   -2.551616   -0.016277
H      -1.279571   -3.093965    2.259146
H      -1.415508   -1.329365    2.498575
H      -2.081281    0.018481    0.508866
H      -1.732347   -0.455154   -1.149227
