17

C       0.046378    1.506917    0.007506
O       1.200421    0.648812    0.011212
C      -0.084458    0.052450    0.020487
C      -0.525154   -0.839962    1.148887
C      -1.786093   -1.549650    0.633302
C      -2.046200   -1.027548   -0.779883
C      -0.553387   -0.836272   -1.136155
O       0.027974   -2.106364   -0.796895
C      -0.441027   -2.222581    0.535121
H      -0.117337    2.074406    0.922525
H      -0.115520    2.063515   -0.915411
H      -0.333441   -0.626606    2.190483
H      -2.567706   -1.893453    1.296455
H      -2.534061   -1.766410   -1.421220
H      -2.606015   -0.088935   -0.807666
H      -0.274972   -0.547849   -2.146279
H      -0.136307   -3.122325    1.048805
