21

C       0.123752    1.549465   -0.178873
C       0.208008    0.027200   -0.047902
C       0.356725   -0.439459    1.408566
C       0.425713   -1.943656    1.508502
O       1.634341   -2.587512    1.095455
C       1.247476   -2.709075    2.480633
C       2.168629   -2.054847    3.490416
C       0.777542   -4.023331    2.866350
C       0.396482   -5.107892    3.218097
H       1.022813    2.032041    0.220391
H       0.020847    1.852736   -1.225225
H      -0.736482    1.948983    0.370031
H      -0.688517   -0.431363   -0.484992
H       1.059212   -0.352175   -0.625216
H       1.250385    0.015286    1.846421
H      -0.501886   -0.091259    1.998933
H      -0.472100   -2.454679    1.152497
H       2.528038   -1.090477    3.130012
H       1.650194   -1.911911    4.443363
H       3.034243   -2.698867    3.670682
H       0.056677   -6.068649    3.517079
