20

C       0.485523    0.669609    1.546601
C      -0.359134   -0.555921    1.925986
C      -1.032468   -0.380735    3.294631
C      -1.404013   -0.806306    0.857260
O      -0.965840   -1.333500   -0.400174
C      -1.875262   -2.121673    0.391660
C      -1.339320   -3.457193    0.844263
O      -1.227096   -4.349609   -0.252697
H       1.272961    0.845383    2.286219
H       0.956254    0.529606    0.569389
H      -0.133762    1.573214    1.497407
H       0.307092   -1.424030    1.968681
H      -1.727337    0.467291    3.285570
H      -1.598166   -1.272448    3.583141
H      -0.286748   -0.187213    4.071794
H      -2.116001    0.018033    0.749890
H      -2.879516   -2.176009   -0.033369
H      -0.376774   -3.335191    1.358600
H      -2.040369   -3.921084    1.546939
H      -0.670580   -3.911300   -0.906717
