23

C      -0.181232    1.405255    0.171426
O       0.318540    0.117376   -0.109140
C       0.746210   -0.573289    1.041117
C      -0.308716   -1.219950    2.004117
C       0.399659   -2.562885    1.801711
C       0.383816   -2.972097    0.353199
C      -0.765535   -2.778555   -0.616165
C       1.390160   -1.934862    0.791595
C       2.873242   -2.120077    0.624351
H       0.577789    2.036429    0.660885
H      -0.459824    1.863303   -0.780787
H      -1.069146    1.372640    0.820871
H       1.431862    0.067979    1.617914
H      -0.244118   -0.833174    3.023464
H      -1.351577   -1.173187    1.676133
H       0.617630   -3.269554    2.594395
H       0.881202   -3.932750    0.218716
H      -1.215674   -1.789456   -0.533725
H      -0.414121   -2.885481   -1.648207
H      -1.542771   -3.533589   -0.449462
H       3.205851   -1.774769   -0.362021
H       3.437001   -1.558128    1.378573
H       3.153892   -3.174574    0.715265
