21

C      -0.492233    1.639929    0.161772
C       0.022018    0.200568    0.030034
C      -1.152117   -0.789120   -0.126024
O      -1.926517   -0.573011   -1.294810
C       1.034716    0.043768   -1.143167
C       2.058290   -1.032105   -0.703667
C       2.042612   -0.949670    0.808681
O       2.131666    0.393881    1.311252
C       0.841590   -0.227642    1.242505
H       0.336258    2.316785    0.387575
H      -0.955350    1.985061   -0.769512
H      -1.232794    1.731751    0.965735
H      -0.769994   -1.811982   -0.215084
H      -1.783110   -0.756799    0.777392
H      -2.375157    0.272925   -1.201628
H       0.516079   -0.215144   -2.068654
H       1.549983    0.992988   -1.305620
H       1.747016   -2.039196   -1.007044
H       3.053124   -0.860469   -1.126125
H       2.530656   -1.704397    1.420736
H       0.357690   -0.400999    2.202351
