12

C      -0.015104    1.544853    0.009082
C       0.010839   -0.000440    0.018448
N       0.762082   -0.463015    1.188243
C      -1.385990   -0.513524   -0.004621
N      -2.469679   -0.910152    0.055496
C       0.702396   -0.486922   -1.195112
N       1.247304   -0.853346   -2.144265
H       1.012302    1.911712    0.024025
H      -0.530013    1.918161   -0.877457
H      -0.541664    1.901791    0.898057
H       0.297817   -0.138556    2.032062
H       0.778090   -1.478306    1.223039
