17

O       0.047149   -0.047762   -0.024607
C       0.022347    1.162238   -0.041654
N      -1.106609    1.954104   -0.031791
C      -0.827945    3.377500    0.161901
C      -0.825712    3.731801    1.661383
C       0.465193    3.035202    2.149673
N       1.409127    3.078806    1.001177
C       0.668161    3.485169   -0.191758
C       1.204975    2.104619   -0.103884
H      -1.977381    1.542599    0.272649
H      -1.483697    3.999633   -0.450728
H      -0.745717    4.817490    1.784973
H      -1.727086    3.397427    2.183547
H       0.926785    3.559491    2.989694
H       0.280777    2.003613    2.465745
H       1.057072    4.277066   -0.821904
H       2.110915    1.749850   -0.581242
