21

C      -0.144382    1.581924   -0.105596
C       0.007892    0.070826   -0.001931
C       0.967656   -0.687967   -0.970756
C       1.445388   -1.563125    0.225131
O       2.834048   -1.625575    0.519276
C       3.158297   -0.657165    1.483606
C       3.031217    0.789690    1.105115
C       1.923677    0.105194    1.900200
C       0.751186   -0.578897    1.213173
H       0.814621    2.099332   -0.024333
H      -0.594736    1.859580   -1.065407
H      -0.795914    1.965911    0.687596
H      -0.987956   -0.382208   -0.065506
H       0.499885   -1.219510   -1.803456
H       1.771846   -0.066320   -1.371100
H       1.059329   -2.586077    0.193932
H       3.925308   -0.995831    2.171371
H       3.635415    1.504893    1.654613
H       2.890753    1.040200    0.061680
H       1.790121    0.421819    2.927844
H       0.097857   -1.015183    1.973123
