20

C       0.011369    1.318815   -0.118070
O      -0.064743   -0.086949    0.023996
C      -1.389550   -0.624150   -0.002175
C      -1.830465   -0.808888   -1.461024
O      -0.908786   -1.605989   -2.175648
C      -1.354105   -1.953368    0.752844
C      -0.812659   -1.792658    2.185288
C      -0.780030   -3.056648    2.916067
N      -0.761811   -4.062776    3.484298
H       1.066781    1.590512   -0.042675
H      -0.371644    1.666007   -1.087386
H      -0.546746    1.831817    0.678658
H      -2.079321    0.072968    0.501826
H      -2.800297   -1.316204   -1.499245
H      -1.959676    0.177718   -1.934290
H      -0.035018   -1.255072   -1.961761
H      -2.366435   -2.368932    0.781251
H      -0.733571   -2.660001    0.195494
H       0.197249   -1.374585    2.147119
H      -1.428698   -1.083172    2.751453
