18

C       0.054904    1.577024    0.080777
C       0.008697    0.058388   -0.097324
C      -1.411314   -0.527837   -0.043059
C      -1.482691   -2.086415    0.155575
C      -2.197319   -1.776337    1.489772
O      -2.703963   -2.417535    2.368058
N      -2.046708   -0.421405    1.292732
C      -2.252908   -0.027729   -1.127744
C      -2.937549    0.392762   -2.022156
H       1.085452    1.940586    0.038577
H      -0.516827    2.084706   -0.701535
H      -0.359405    1.871337    1.051096
H       0.456130   -0.223602   -1.057401
H       0.593924   -0.428996    0.690658
H      -2.106217   -2.613139   -0.566735
H      -0.514307   -2.580823    0.249887
H      -2.515341    0.359373    1.730191
H      -3.550208    0.756857   -2.810012
