19

O       0.179427    1.187905    0.401453
C      -0.009386   -0.195337    0.191799
C      -1.477734   -0.552461   -0.093734
C      -1.723394   -2.084235   -0.108068
C      -2.379957   -2.340808    1.256016
O      -3.182621   -1.197451    1.481910
C      -2.432651   -0.073192    1.060650
C      -1.934605    0.087375   -1.385018
O      -1.298335    0.891560   -2.025328
H      -0.002885    1.606557   -0.449665
H       0.617372   -0.569618   -0.631381
H       0.314485   -0.700458    1.108769
H      -2.416649   -2.361254   -0.909443
H      -0.796989   -2.645673   -0.257705
H      -3.027295   -3.220754    1.278410
H      -1.614924   -2.450307    2.042178
H      -1.817742    0.338847    1.872224
H      -3.142421    0.701377    0.752663
H      -2.951558   -0.222449   -1.717757
