14

O      -0.134143   -0.075896    0.000981
C      -0.022705    1.117915    0.005535
C       1.281695    1.891178   -0.002293
O       2.351892    1.004771   -0.016055
C       3.608973    1.670560   -0.023691
C       4.683373    0.690765   -0.038059
C       5.591961   -0.093245   -0.050004
C      -1.213136    2.000986    0.020123
N      -2.133415    2.700735    0.031764
H       1.267641    2.562402   -0.882074
H       1.283251    2.553820    0.884088
H       3.686065    2.326097   -0.906953
H       3.701570    2.317118    0.864685
H       6.389890   -0.794367   -0.060642
