17

O       0.128240    1.098814   -0.234637
C      -0.019292   -0.287176   -0.110712
C      -0.043429   -0.900291    1.331151
O      -1.342244   -1.498364    1.064602
C      -1.457052   -0.772961   -0.162585
C      -2.667480    0.023473   -0.518025
C      -2.300712   -1.233983   -1.297561
C       0.980136   -1.859702    1.690761
C       1.854139   -2.637577    1.967305
H       1.062261    1.300991   -0.346291
H       0.655034   -0.837951   -0.776697
H      -0.128217   -0.107671    2.085847
H      -3.512516   -0.039033    0.158890
H      -2.515573    0.990912   -0.983732
H      -1.914110   -1.131191   -2.306668
H      -2.904756   -2.119137   -1.129350
H       2.617256   -3.331350    2.221110
