22

C      -0.078551    1.409243   -0.152821
C       0.171551   -0.100552   -0.086481
C       0.663286   -0.581177    1.283669
O      -0.271799   -0.289341    2.325997
C       0.890460   -2.100336    1.342764
C       1.653763   -2.521776    2.605140
N      -0.398033   -2.777277    1.248887
C      -0.590758   -3.921451    0.547591
O       0.258192   -4.498298   -0.102023
H       0.817726    1.978356    0.120627
H      -0.367226    1.713737   -1.162743
H      -0.892641    1.717336    0.513592
H      -0.743575   -0.644429   -0.344871
H       0.926187   -0.378523   -0.832212
H       1.627096   -0.093235    1.503294
H      -0.416522    0.660578    2.350339
H       1.460964   -2.407260    0.461845
H       2.644551   -2.055780    2.629592
H       1.109925   -2.218946    3.504026
H       1.785412   -3.606473    2.618045
H      -1.155293   -2.386151    1.787969
H      -1.636850   -4.280676    0.626429
