17

C      -0.005443    1.588376   -0.182061
C       0.019055    0.104087   -0.042296
C       0.056839   -1.036918   -1.008344
N       1.263502   -1.609704   -0.414342
C       0.899048   -0.889468    0.826343
C      -0.440479   -1.555484    1.332576
C      -0.942233   -0.949138    2.555216
N      -1.322532   -0.463944    3.533994
C      -1.061844   -0.960065    0.066547
H       0.968990    1.972890   -0.501719
H      -0.746541    1.889838   -0.929771
H      -0.270352    2.072901    0.763589
H      -0.158887   -1.060314   -2.069283
H       1.258657   -2.627046   -0.317521
H       1.690251   -0.648889    1.533130
H      -0.421318   -2.646725    1.443944
H      -2.113219   -0.880407   -0.176654
