23

C       0.094916    1.511057   -0.004339
C      -0.096635    0.004809   -0.067892
O       0.698585   -0.498923   -1.125807
C       0.709195   -1.911576   -1.261153
C      -0.554981   -2.419275   -1.961017
C       1.990486   -2.273190   -2.043423
C       3.252548   -1.721750   -1.355787
C       2.127468   -3.777978   -2.159314
O       2.218995   -4.396447   -3.187873
H       1.144888    1.758882    0.175546
H      -0.210042    1.975846   -0.946125
H      -0.506936    1.937113    0.803930
H       0.202844   -0.464902    0.883907
H      -1.159684   -0.233898   -0.225339
H       0.776413   -2.368172   -0.257136
H      -0.636977   -1.977186   -2.958631
H      -0.534881   -3.508276   -2.070257
H      -1.453418   -2.160760   -1.394338
H       1.909115   -1.868963   -3.057806
H       3.146792   -0.646513   -1.206173
H       3.403551   -2.188990   -0.375296
H       4.142777   -1.912070   -1.961752
H       2.168017   -4.302586   -1.172870
