21

C      -0.190071    1.317584   -0.324660
C       1.201215    1.042313    0.184553
C       0.200783   -0.081490    0.081395
C      -0.366517   -0.709279    1.306647
C      -0.742423    0.029410    2.623961
C      -1.432179   -1.341560    2.909348
C      -1.768371   -1.379204    1.387822
C      -0.205501   -2.259272    2.932540
O       0.508292   -1.762849    1.781162
H      -0.865894    1.867219    0.321559
H      -0.325764    1.519325   -1.381262
H       2.025279    1.058185   -0.519577
H       1.456526    1.398633    1.176344
H       0.359890   -0.791654   -0.725407
H       0.079887    0.340522    3.273410
H      -1.461215    0.838315    2.483654
H      -2.183504   -1.471787    3.687064
H      -2.581247   -0.704765    1.113791
H      -1.884028   -2.352622    0.904026
H       0.408028   -2.147547    3.834987
H      -0.451386   -3.320019    2.799336
