17

O      -0.655501    0.772517    0.788029
C       0.156898    1.017503   -0.067918
C       1.238693    2.029851    0.080878
O       2.380963    1.838250   -0.781293
C       1.552063    2.939304   -1.048645
C       0.898318    3.146790   -2.431223
C       1.400571    4.600731   -2.388663
C       0.869654    5.297282   -1.172692
C       2.046515    4.366066   -1.012740
H       0.158265    0.504809   -1.055356
H       1.455565    2.353346    1.097430
H       1.409745    2.534845   -3.178209
H      -0.182720    3.002399   -2.520647
H       1.808056    5.139882   -3.233670
H       1.110025    6.352269   -1.090610
H      -0.101402    5.029695   -0.762472
H       3.005629    4.683996   -0.624605
