21

C      -0.189962    1.358639   -0.132685
O      -0.044841   -0.039341   -0.073528
C       0.672707   -0.566857   -1.169590
C       0.697397   -2.075883   -1.026565
C      -0.629190   -2.858792   -1.297083
C       0.098879   -3.696605   -2.369803
O      -0.015438   -3.130333   -3.694208
C       1.269039   -2.477041   -3.575932
C       1.426534   -2.925306   -2.112912
H       0.784726    1.872821   -0.126911
H      -0.737090    1.676296   -1.034724
H      -0.755809    1.667501    0.749746
H       0.188079   -0.269954   -2.114933
H       1.701058   -0.162426   -1.189992
H       1.093778   -2.308729   -0.034315
H      -0.988554   -3.430350   -0.437900
H      -1.454496   -2.267094   -1.700166
H      -0.016918   -4.783852   -2.371080
H       2.006478   -2.926796   -4.254167
H       1.214277   -1.402008   -3.784904
H       2.372052   -3.387338   -1.831422
