19

C      -0.447691    1.517783   -0.010447
C       0.000165    0.063367    0.021377
C       1.184748   -0.385155   -0.958595
C       2.049492   -0.518581    0.297249
C       2.961856   -1.075112    1.417473
C       2.028603    0.078489    1.995972
O       2.331505    0.861611    0.803608
C       0.824530   -0.537851    1.241567
O       0.300693   -1.687203    1.839634
H       0.405484    2.189156    0.086023
H      -0.970033    1.741794   -0.947774
H      -1.142758    1.721063    0.811544
H      -0.880666   -0.575443   -0.122247
H       0.969526   -1.336428   -1.452170
H       1.531163    0.340661   -1.698291
H       2.767757   -2.095655    1.749105
H       4.021915   -0.819267    1.374315
H       2.111926    0.574764    2.968220
H      -0.258209   -2.148509    1.205885
