18

C      -0.175248    1.491467    0.021743
C       0.039610   -0.024406    0.016511
C       0.965304   -0.508890   -1.084991
C       1.667852   -1.760303   -0.711590
N       2.406941   -0.456133   -0.667036
C       2.324339   -0.502903    0.844665
C       0.844107   -0.547727    1.193253
C       1.608179   -1.814292    0.833361
O       1.791000   -2.915959    1.634759
H       0.782236    2.018112    0.080881
H      -0.687461    1.820563   -0.888339
H      -0.785566    1.799352    0.876821
H      -0.928521   -0.537374   -0.057852
H       0.788129   -0.249437   -2.123904
H       1.965940   -2.562419   -1.377376
H       3.116933   -0.089151    1.452243
H       0.551054   -0.398481    2.225533
H       0.937000   -3.342398    1.769971
