17

O       0.231635    1.318386   -0.202934
C       0.050387   -0.046228   -0.030856
C       0.045061   -0.647678    1.441875
O       1.026367   -0.230999    2.329747
C      -1.453014   -0.191081    1.532913
C      -1.428148   -0.630393    0.027118
O      -2.349789   -0.191385   -0.912430
C      -1.086826   -2.112914    0.161436
C      -0.121106   -2.124258    1.089014
H      -0.340133    1.806552    0.398407
H       0.720013   -0.544286   -0.734241
H       0.850635   -0.629211    3.189109
H      -2.110077   -0.742679    2.210390
H      -1.576610    0.888260    1.674819
H      -3.206161   -0.581562   -0.706647
H      -1.486623   -2.911920   -0.448517
H       0.494631   -2.935191    1.454454
