16

C       0.002706    1.497732   -0.012791
C       0.004733    0.004541    0.031892
N      -0.024788   -0.697495   -1.079406
O      -0.014021   -2.024785   -0.711509
C       0.022146   -2.103394    0.635737
C       0.039417   -3.430785    1.256176
O       0.024164   -4.476400    0.652477
C       0.036061   -0.846639    1.180857
C       0.074489   -0.419963    2.612649
H       0.899488    1.906476    0.465193
H      -0.027860    1.840588   -1.048461
H      -0.864826    1.905602    0.517083
H       0.068947   -3.396720    2.365688
H       0.963703    0.186625    2.818474
H      -0.797439    0.194812    2.863106
H       0.087852   -1.272608    3.294375
