14

C      -0.430143   -1.115169   -0.509680
C      -0.116712    0.007631   -0.216508
C       0.246837    1.367258    0.143234
C      -0.137670    1.848163    1.567422
C       1.391838    1.988926    1.787011
O       1.661257    1.528138    0.435378
C       1.901741    3.322684    2.054001
C       2.313938    4.428113    2.284188
H      -0.702029   -2.107277   -0.774349
H      -0.057008    2.056612   -0.654136
H      -0.694152    2.783630    1.599653
H      -0.621913    1.097542    2.190230
H       1.801412    1.281163    2.518203
H       2.685343    5.402752    2.485150
