20

C      -0.548315    1.450732   -0.044319
C      -0.066102    0.007189    0.033200
C       1.144782   -0.453901   -0.872084
C       1.803669    0.526832   -1.831910
C       1.928639   -0.828562    0.408155
O       2.698913    0.267197    0.953362
C       1.672573    0.559402    1.931436
C       0.713286   -0.460928    1.305243
H       0.267537    2.171132    0.063256
H      -1.030975    1.647204   -1.007559
H      -1.283849    1.659444    0.740918
H      -0.924784   -0.651093   -0.131008
H       0.868874   -1.366592   -1.412581
H       2.202689    1.392635   -1.298558
H       2.639992    0.050086   -2.355007
H       1.095798    0.878045   -2.589986
H       2.483775   -1.771269    0.433830
H       2.004859    0.290448    2.943233
H       1.378459    1.615130    1.927287
H       0.203625   -1.152612    1.975183
