18

C      -0.055530    1.555400    0.080640
C       0.005661    0.061425    0.039000
C      -0.236186   -0.725918   -1.011810
C      -0.028213   -2.198218   -0.713091
C       0.119778   -2.208441    0.837038
C       0.434634   -0.749056    1.243137
C      -1.206527   -3.036398   -1.170156
O      -1.166051   -3.905325   -2.001369
H       0.918892    1.982349    0.350455
H      -0.357322    1.976746   -0.881697
H      -0.765637    1.898781    0.843478
H      -0.513539   -0.374296   -2.000046
H       0.860170   -2.589430   -1.224243
H      -0.832306   -2.514186    1.286775
H       0.874358   -2.923888    1.170285
H       1.505582   -0.596887    1.439023
H      -0.086284   -0.448564    2.160099
H      -2.163472   -2.767993   -0.659915
