18

C      -0.053749    1.586075    0.079418
C       1.485921    1.405563    0.055643
C       1.723259    0.731838    1.425776
O       2.856781   -0.155480    1.439599
C       2.028503   -1.177600    0.820610
C       2.086031   -0.941080   -0.689572
N       1.238536    0.247630   -0.903880
C       0.012012    0.047805   -0.061798
C       0.714719   -0.434657    1.230910
H      -0.507462    2.007467    0.979172
H      -0.433243    2.069876   -0.820136
H       2.178594    2.182513   -0.267537
H       1.697344    1.402252    2.288391
H       2.264201   -2.180534    1.183520
H       3.111511   -0.772998   -1.027135
H       1.651248   -1.770003   -1.261682
H      -0.796808   -0.552831   -0.481095
H       0.135252   -0.800035    2.074838
