18

C      -0.461775    1.391624   -0.170058
C      -0.121460   -0.050859    0.097336
O       1.236892   -0.485983   -0.097905
C       0.692600   -0.569510    1.211284
C       1.342366    0.222639    2.316875
C       0.732240    0.091105    3.710253
C       2.039318   -0.572678    3.421486
C       1.953760    1.484811    1.987731
N       2.461934    2.500363    1.767066
H       0.279912    2.079114    0.235178
H      -0.529601    1.559361   -1.249940
H      -1.439340    1.628378    0.264236
H      -0.848238   -0.759054   -0.308580
H       0.470514   -1.588125    1.542477
H       0.725030    0.976313    4.333996
H      -0.158275   -0.523676    3.783147
H       2.062132   -1.649108    3.292817
H       2.939922   -0.144412    3.843749
