20

O       0.248091    0.165637    0.235142
C       0.090298    1.352668    0.125783
C      -1.081047    2.183587    0.661891
C      -0.889143    3.543797   -0.034622
N       0.562543    3.684560   -0.285756
C       1.028440    2.332128   -0.603341
C       1.275994    4.291092    0.808905
C       2.551598    5.023059    0.488107
C       1.310081    5.794219    0.868820
H      -2.034490    1.687914    0.465975
H      -0.972631    2.264995    1.750270
H      -1.416022    3.550204   -0.997122
H      -1.248463    4.393950    0.547184
H       2.072110    2.176474   -0.322482
H       0.943897    2.132796   -1.682042
H       1.253811    3.773132    1.773829
H       3.369242    4.968989    1.197819
H       2.848845    5.049364   -0.553684
H       0.796091    6.325484    0.076209
H       1.271526    6.272181    1.841104
