17

N      -0.186238    1.337587    0.112016
C      -0.028609    0.102584   -0.119456
C      -1.144382   -0.888999    0.119284
C      -1.178509   -2.011694   -0.902255
C      -0.745385   -1.763479   -2.328910
C       0.164100   -2.494794   -1.373156
C       1.355258   -1.784364   -0.770126
O       1.153156   -0.374747   -0.615132
H       0.679967    1.842488   -0.089328
H      -1.009137   -1.325033    1.119427
H      -2.075905   -0.319872    0.148371
H      -1.961527   -2.746309   -0.744089
H      -1.224136   -2.344388   -3.108911
H      -0.481671   -0.753461   -2.622876
H       0.317572   -3.559154   -1.523451
H       1.602607   -2.226280    0.206312
H       2.241496   -1.868634   -1.406183
