15

O      -0.084938    1.389632    0.033161
C      -0.002788    0.017352   -0.042287
C       0.565276   -0.714471   -1.311678
O       0.784818   -2.090682   -1.004822
C      -0.551683   -1.652974   -1.281184
C      -1.154768   -0.961884   -0.020899
C      -0.182290   -0.893271    1.161546
C       0.682154   -1.913587    1.685660
C       1.377609   -2.716324    2.250176
H       0.742710    1.724367    0.398864
H       1.119239   -0.259029   -2.124091
H      -1.097133   -2.155269   -2.069966
H      -2.210607   -0.767709    0.113253
H      -0.652638   -0.304922    1.950020
H       2.003707   -3.446265    2.699622
