17

C      -0.009484    1.436649   -0.016402
N      -0.089038   -0.019209   -0.057440
C       0.606178   -0.658680   -1.056536
N       1.195855   -0.070157   -2.057357
N       1.657149   -1.135661   -2.825396
C       1.376618   -2.366990   -2.304259
O       1.631119   -3.482805   -2.712923
N       0.681704   -2.031211   -1.124851
C       0.100233   -3.016910   -0.245286
H       1.013404    1.807165    0.131811
H      -0.375761    1.838335   -0.963371
H      -0.648089    1.797445    0.792304
H      -0.001934   -0.465010    0.845173
H       2.150938   -0.961202   -3.681254
H       0.262985   -3.988809   -0.715922
H       0.582736   -3.020033    0.739268
H      -0.973090   -2.844659   -0.118043
