11

O      -0.120831    1.163215    0.009517
N       1.061184    2.100460    0.003224
N       2.195923    1.616721   -0.010248
C       2.362321    0.256253   -0.019149
C       3.455588   -0.557663   -0.034042
C       2.890430   -1.893099   -0.035710
N       1.569492   -1.940805   -0.023362
C       1.201827   -0.617966   -0.012736
N      -0.018608   -0.174324    0.001350
H       4.500967   -0.289219   -0.042656
H       3.470218   -2.809509   -0.046214
