20

C      -0.063707    1.563776    0.003498
N       0.131913    0.121072    0.057403
C       1.365023   -0.541028   -0.304362
C       2.654821    0.275008   -0.388993
C       2.863163    0.895268    1.009680
C       1.822822    0.248757    1.932823
O       1.801183    0.345195    3.136057
C       0.864087   -0.586420    1.118578
C       0.164747   -1.732626    1.800421
H       0.837963    2.182252    0.104510
H      -0.525519    1.805696   -0.959294
H      -0.764107    1.851410    0.792823
H       1.254624   -1.399090   -0.964084
H       3.481240   -0.394109   -0.645858
H       2.602918    1.028803   -1.181682
H       3.856021    0.685925    1.417900
H       2.747020    1.984301    1.033800
H      -0.409765   -1.367424    2.657171
H      -0.516923   -2.225788    1.104169
H       0.885575   -2.465628    2.176667
