17

C      -0.295475    1.599172   -0.093025
C       0.017468    0.110243   -0.089526
C       0.889174   -0.456339   -1.230299
C       1.852303   -0.867459   -0.100535
O       1.017996   -0.239232    0.903839
C      -1.256761   -0.706869    0.168176
O      -1.818861   -1.337864   -0.700092
C      -1.747838   -0.671689    1.534028
C      -2.175322   -0.626433    2.658244
H       0.625815    2.169344   -0.240612
H      -0.995634    1.842045   -0.899391
H      -0.741076    1.900100    0.859686
H       0.422790   -1.261360   -1.796722
H       1.275531    0.301447   -1.913136
H       1.948056   -1.946121    0.069604
H       2.851122   -0.419305   -0.127194
H      -2.551967   -0.594894    3.651847
