15

O       0.206025    1.432333   -0.178338
C       0.054391    0.024303   -0.055531
C       0.620420   -0.552449    1.252040
C      -0.277656   -1.298648    1.918500
C      -1.525268   -1.293113    1.152125
N      -2.737326   -1.813779    1.265122
N      -3.364433   -1.340826    0.155406
C      -2.575537   -0.551202   -0.636514
C      -1.359181   -0.500841   -0.007378
H      -0.288141    1.832872    0.546027
H       0.607893   -0.386952   -0.909413
H       1.637933   -0.344159    1.558415
H      -0.122060   -1.813193    2.857714
H      -4.328601   -1.584588    0.005816
H      -2.958747   -0.114718   -1.545526
