21

C       0.060477    1.573306    0.164435
C      -0.029887    0.049426    0.272032
C      -1.343277   -0.503757   -0.296976
C      -1.449265   -2.015701   -0.171963
N      -1.783423   -2.550325    1.169485
C      -2.735560   -2.760335    0.076077
C      -4.086629   -2.096065    0.174342
C      -0.459436   -2.751771   -0.933712
N       0.339737   -3.335116   -1.534248
H       1.002631    1.942939    0.579916
H       0.005542    1.902383   -0.879234
H      -0.756874    2.059709    0.708537
H       0.816343   -0.408833   -0.254097
H       0.051478   -0.257696    1.321314
H      -2.186712   -0.054460    0.234028
H      -1.442978   -0.227191   -1.354076
H      -1.252461   -3.394661    1.366695
H      -2.761286   -3.757710   -0.360414
H      -4.025802   -1.126235    0.670687
H      -4.525963   -1.959741   -0.818989
H      -4.764767   -2.726364    0.759007
