19

C       0.305416    1.467459    0.282781
C      -0.199112    0.085253   -0.170797
C       0.537551   -0.444865   -1.313082
C       1.158943   -0.858653   -2.256985
C       1.914800   -1.382129   -3.400937
C       2.094431   -2.912726   -3.283931
N       1.179434   -1.093777   -4.644733
C       3.263454   -0.743933   -3.405850
N       4.306689   -0.249497   -3.471946
H       1.357851    1.420899    0.574206
H       0.210536    2.199817   -0.523216
H      -0.275919    1.819463    1.139752
H      -0.129653   -0.625653    0.662194
H      -1.264081    0.145423   -0.428245
H       1.106653   -3.376310   -3.281890
H       2.667827   -3.288310   -4.136508
H       2.624044   -3.169179   -2.364809
H       1.016734   -0.093724   -4.719391
H       1.752076   -1.361498   -5.441634
