18

C      -0.019551    1.520343    0.012518
C      -0.016957    0.029321   -0.051884
C      -0.060601   -0.793371   -1.137590
C      -0.036323   -2.154104   -0.683833
C       0.021989   -2.150928    0.676304
C       0.067021   -3.302154    1.627938
N       0.034808   -0.802464    1.085428
C       0.090007   -0.389721    2.407838
O       0.102558    0.756560    2.782411
H       0.876453    1.914368    0.500939
H      -0.064007    1.912439   -1.007077
H      -0.874033    1.908117    0.574800
H      -0.105749   -0.458866   -2.163232
H      -0.059711   -3.039539   -1.301535
H       0.978231   -3.316065    2.238110
H      -0.787808   -3.321882    2.314720
H       0.045074   -4.230270    1.051956
H       0.123761   -1.245380    3.102571
