21

C      -0.308369    1.504129    0.134706
C      -0.064312   -0.004581   -0.014007
C      -1.353458   -0.806220    0.163082
C       0.831459   -0.374363   -1.251324
C       2.063688   -0.628703   -0.337183
C       2.828171   -1.933802   -0.469945
O       2.925123    0.508205   -0.407953
C       1.104996   -0.475078    0.875515
O       1.236767   -0.666251    2.051956
H       0.620686    2.066848    0.010548
H      -1.022825    1.847908   -0.621636
H      -0.720060    1.731764    1.123175
H      -2.098696   -0.505892   -0.581885
H      -1.180089   -1.881599    0.051988
H      -1.778339   -0.636486    1.157351
H       0.496593   -1.276994   -1.767807
H       0.987106    0.425020   -1.977006
H       3.400470   -1.941620   -1.402780
H       3.523931   -2.054954    0.368025
H       2.151660   -2.794133   -0.465556
H       3.510003    0.475029    0.358664
