19

C       0.047317    1.420318   -0.092665
O       1.369680    1.908720   -0.066499
C       2.150977    1.439411    1.040369
C       1.660019    1.972286    2.402604
C       0.543372    1.156206    3.004880
C       0.087987    0.029850    2.455009
C       0.664577   -0.494575    1.158079
C       2.136541   -0.091860    1.028504
O      -0.041173    0.021624    0.007453
H      -0.548619    1.899101    0.700150
H      -0.359397    1.685086   -1.071567
H       3.152441    1.831319    0.843657
H       2.508724    1.995836    3.101754
H       1.346930    3.017173    2.283481
H       0.112143    1.527256    3.932403
H      -0.738317   -0.514414    2.902221
H       0.537188   -1.577552    1.090090
H       2.541299   -0.461204    0.082572
H       2.727049   -0.500053    1.855169
