18

C      -0.030113    1.581184   -0.014281
C      -0.061338    0.082241    0.046226
C       1.140174   -0.790122   -0.338638
C       0.566988   -0.925755    1.035190
O       1.267335   -0.611777    2.181858
C      -0.702898   -1.800110    1.009573
C      -1.274379   -0.783695    0.024093
N      -2.401041   -0.581590   -0.518955
O      -3.301873   -1.623105   -0.209008
H       0.932148    1.959875    0.343437
H      -0.177304    1.940571   -1.038193
H      -0.820357    2.012702    0.607590
H       1.050490   -1.581074   -1.079123
H       2.068250   -0.227176   -0.383984
H       2.021455   -1.207013    2.254890
H      -0.605630   -2.839239    0.679530
H      -1.248891   -1.770615    1.957012
H      -4.102887   -1.334768   -0.659059
