15

O      -0.056741   -0.043452    0.080675
C       0.018252    1.159099    0.006976
C       1.303841    1.908226    0.004719
C       2.738478    1.410140    0.087599
N       2.976515    2.917779   -0.000956
C       1.772118    3.049417   -0.972395
C       1.172253    4.188839   -0.146534
C       1.707289    3.167063    0.858388
H      -0.898492    1.789776   -0.065633
H       3.075566    0.969979    1.030188
H       3.139172    0.854518   -0.764784
H       1.916796    2.954893   -2.050002
H       1.712132    5.138026   -0.188404
H       0.091122    4.333975   -0.194137
H       1.775281    3.211760    1.946729
