21

C      -0.462361    1.478824    0.115774
C       0.002947    0.010632    0.008202
C       0.684731   -0.290499   -1.348575
C       2.165616    0.045414   -1.416371
C       2.848398   -0.230669   -2.736193
O       2.572605    1.254925   -0.767587
C       2.923801   -0.013253   -0.150301
C       2.218711   -0.371731    1.102432
C       0.886451   -0.364100    1.172270
H       0.390973    2.152348    0.019574
H      -1.185055    1.707715   -0.675649
H      -0.948255    1.666599    1.078890
H      -0.898336   -0.614516    0.060753
H       0.591208   -1.361440   -1.571069
H       0.152861    0.238536   -2.149435
H       2.395205    0.366635   -3.535425
H       3.909431    0.025180   -2.680994
H       2.755369   -1.286163   -3.013172
H       3.990942   -0.225039   -0.193029
H       2.824612   -0.637823    1.963342
H       0.391771   -0.605775    2.109935
