21

O       0.083627    1.441321   -0.019079
C       0.072107    0.020000    0.022368
C       0.570126   -0.524600    1.387280
C      -0.685128   -0.569413    2.321452
C      -1.831570   -0.362354    1.366236
C      -3.074858    0.110922    1.427466
C      -3.681561    0.241199    0.042918
C      -2.447860    0.137292   -0.904766
C      -1.361867   -0.557645   -0.059727
H      -0.569242    1.757026    0.617779
H       0.717428   -0.293442   -0.802411
H       0.976762   -1.532622    1.254161
H       1.373988    0.104057    1.777360
H      -0.750466   -1.532351    2.840561
H      -0.657008    0.198571    3.100782
H      -3.615714    0.370386    2.331787
H      -4.404769   -0.564668   -0.148491
H      -4.233196    1.179466   -0.088135
H      -2.675647   -0.391890   -1.833205
H      -2.099707    1.139422   -1.173116
H      -1.279128   -1.628914   -0.298508
