15

C       0.264933    0.833759    0.881425
C      -0.191255    0.391073   -0.519847
C      -1.582234   -0.145445   -0.529345
N      -1.974257   -1.359191   -0.781810
C      -3.340610   -1.255794   -0.625918
N      -4.165273   -2.323687   -0.866736
N      -3.776325   -0.063540   -0.287997
O      -2.580242    0.690087   -0.231949
H       1.283855    1.227652    0.839002
H      -0.389809    1.614617    1.276414
H       0.252680   -0.007566    1.580261
H      -0.141286    1.241779   -1.208966
H       0.460780   -0.392069   -0.912648
H      -3.724921   -3.220520   -0.730673
H      -5.087319   -2.249747   -0.464256
