15

O      -0.023067   -0.067955   -0.250915
C      -0.027500    1.128595   -0.077828
N      -1.119474    1.941919    0.007835
C      -0.869793    3.365522    0.144555
C       0.654195    3.445960    0.414911
N       0.967267    3.652563    1.841337
C       1.640477    2.638568    2.198446
O       1.918093    1.657422    1.308272
C       1.207817    2.034215    0.106255
H      -2.042759    1.555279   -0.110693
H      -1.140232    3.908865   -0.769481
H      -1.425056    3.799029    0.981122
H       1.106172    4.249534   -0.171249
H       2.045959    2.469683    3.189627
H       1.892632    1.940887   -0.736900
