17

O       0.018541    1.391691   -0.218917
C       0.030942    0.019021    0.139385
C      -1.369414   -0.547748    0.105914
C      -1.768139   -2.069353    0.043618
C      -3.113045   -1.502236   -0.502249
O      -3.622182   -0.745476    0.603537
C      -2.441093   -0.038699    1.084354
C      -2.202005   -0.467264   -1.196534
O      -2.047901    0.050150   -2.264166
H      -0.318475    1.442096   -1.122091
H       0.680690   -0.568396   -0.527709
H       0.461843   -0.036973    1.145285
H      -1.194918   -2.640829   -0.689511
H      -1.841990   -2.594338    0.998064
H      -3.898708   -2.089128   -0.969785
H      -2.244240   -0.319003    2.125661
H      -2.592532    1.042792    1.021224
