14

O      -0.760937    1.206810    0.697425
C       0.031975    1.096562   -0.202083
C       1.331253    1.859150   -0.206741
N       2.300501    1.490417   -1.227099
C       1.700060    2.847428   -1.304894
C       0.770400    3.049253   -2.482592
O      -0.156140    2.326168   -2.730720
C       2.502123    3.985946   -0.950792
C       3.165410    4.957092   -0.699377
H      -0.106719    0.410892   -1.055980
H       1.670521    2.152429    0.784142
H       3.252938    1.568923   -0.876985
H       1.015325    3.931646   -3.107768
H       3.749984    5.812126   -0.461998
