15

O       0.054371    1.408087    0.008986
C      -0.008879    0.009026    0.002210
C      -1.467273   -0.436546    0.013704
O      -2.386493    0.342330    0.026489
C      -1.684208   -1.947460    0.007866
C      -3.180216   -2.298195    0.020313
C      -3.403675   -3.740928    0.014739
N      -3.562337   -4.885523    0.010093
H       0.980624    1.666984    0.001427
H       0.467428   -0.439065   -0.887792
H       0.484162   -0.448372    0.878259
H      -1.193946   -2.379183   -0.873060
H      -1.177249   -2.388351    0.874686
H      -3.659630   -1.860217    0.901113
H      -3.676349   -1.850882   -0.846426
