20

O      -0.056623    1.441252    0.040375
C       0.017088    0.023071   -0.014003
C      -1.401707   -0.532694    0.010785
C      -1.418141   -2.060938   -0.150615
C      -2.847528   -2.600556   -0.004826
C      -3.479448   -2.076101    1.286632
O      -3.452431   -0.661396    1.346994
C      -2.133610   -0.145388    1.304290
H       0.838420    1.790452    0.073337
H       0.527565   -0.314485   -0.930686
H       0.586404   -0.377817    0.841912
H      -1.951501   -0.081910   -0.826169
H      -0.990153   -2.351456   -1.117109
H      -0.780429   -2.512290    0.623852
H      -3.457174   -2.271344   -0.855051
H      -2.853719   -3.696677   -0.003231
H      -4.531913   -2.365782    1.361027
H      -2.950024   -2.500939    2.158749
H      -1.555094   -0.511623    2.173240
H      -2.218306    0.939303    1.388794
