16

C       0.058774    1.420682    0.582769
C       0.011106    0.146828   -0.233618
O       0.968310   -0.278134   -0.840753
C      -1.318701   -0.559852   -0.251921
C      -2.003885   -0.943445   -1.513481
C      -1.058445   -1.343872   -2.644355
C      -0.496929   -2.359251   -1.635930
O       0.242814   -3.284887   -1.670127
N      -1.456571   -2.006968   -0.567042
H       1.016889    1.919200    0.435501
H      -0.762176    2.091295    0.305462
H      -0.069745    1.182188    1.645297
H      -1.985144   -0.278929    0.560263
H      -3.075044   -0.817027   -1.620017
H      -1.573541   -1.843319   -3.468995
H      -0.364663   -0.600764   -3.036356
