20

C       0.007063    1.231048    0.191640
O      -0.026089   -0.146222   -0.113777
C       0.693147   -0.573436   -1.272171
C       0.183395    0.074453   -2.548299
C       2.226834   -0.631463   -0.997188
C       2.046794   -2.065224   -0.429025
C       0.679267   -2.134345   -1.166098
O      -0.427106   -2.729881   -0.557508
H       1.033525    1.618618    0.252018
H      -0.549556    1.832333   -0.539315
H      -0.466255    1.348517    1.169734
H       0.391268    1.149099   -2.581233
H       0.668964   -0.379229   -3.417345
H      -0.897585   -0.071890   -2.643534
H       2.800557   -0.614347   -1.928012
H       2.634843    0.127021   -0.326003
H       2.796947   -2.817004   -0.682389
H       1.900302   -2.054923    0.653536
H       0.792342   -2.585509   -2.157234
H      -0.711296   -2.107146    0.124883
