16

N      -0.018032   -1.155936   -0.202919
C      -0.006799   -0.008902   -0.067386
C      -0.014274    1.456127    0.024060
N      -0.591942    1.933955    1.301730
C       0.210965    3.090841    1.681711
C       1.685975    2.868025    1.924691
N       2.069405    1.581016    1.303619
C       1.403831    2.064673    0.037419
C       1.205780    3.490590    0.622140
H      -0.560097    1.841213   -0.851086
H      -1.560128    2.202304    1.173207
H      -0.285761    3.840759    2.284985
H       2.224761    3.288091    2.766031
H       3.074817    1.589438    1.149844
H       1.967674    1.915313   -0.881132
H       1.337138    4.452381    0.142565
