18

C      -0.141406    1.406195    0.026145
N      -0.072142   -0.043905    0.073158
C       0.612377   -0.614180    0.968831
O       1.275321    0.056482    1.961376
C       2.521938   -0.511193    2.388063
C       2.366696   -1.924150    2.945792
C       1.524620   -2.777721    2.012418
O       0.118221   -2.689312    2.218459
C       0.660742   -2.104933    1.022215
H       0.642579    1.911736    0.600212
H      -0.093970    1.726009   -1.019647
H      -1.114289    1.731533    0.414456
H       3.219486   -0.514183    1.539263
H       2.908909    0.178630    3.141282
H       3.360592   -2.364143    3.079047
H       1.879842   -1.899071    3.925855
H       1.881657   -3.782456    1.789145
H       0.371291   -2.593230    0.096449
