21

O       0.198849    1.386357   -0.455976
C       0.043397    0.064707   -0.022455
C       0.448706   -1.069078   -1.009098
C      -0.996669   -1.652303   -0.929718
C      -1.395973   -0.548924    0.085550
C      -1.093609   -0.884857    1.553293
C      -2.050439   -0.790905    2.704395
C      -1.482887   -2.131081    2.294333
C       0.302527   -0.238357    1.481703
H       1.140059    1.595445   -0.451351
H       0.699235   -0.672531   -1.995971
H       1.256974   -1.726353   -0.675603
H      -1.536205   -1.586559   -1.877275
H      -1.079095   -2.676034   -0.556266
H      -2.296243    0.033366   -0.116025
H      -1.696546   -0.343539    3.628386
H      -3.094722   -0.591295    2.484827
H      -2.145403   -2.836193    1.801256
H      -0.744082   -2.594075    2.941167
H       1.159391   -0.881146    1.710235
H       0.377458    0.683939    2.066140
