15

C       0.326442    1.266006    0.278726
N      -0.304354    0.048195   -0.240862
C       0.450386   -0.722510   -1.103808
C       0.990413   -1.957965   -1.042938
N       1.699277   -2.250423   -2.205111
C       1.551934   -1.178447   -2.924593
N       1.995299   -0.971487   -4.208768
O       0.825895   -0.194921   -2.365332
H       1.246316    0.991420    0.802394
H       0.578910    2.001982   -0.498505
H      -0.349418    1.737174    0.998140
H      -1.231435    0.242498   -0.603234
H       0.915334   -2.662688   -0.229927
H       2.728329   -1.613777   -4.472090
H       2.203699   -0.009773   -4.434197
