16

C      -0.264341    1.627374   -0.249558
C      -0.031536    0.103959   -0.076898
C      -1.294265   -0.607676    0.149979
C      -2.339298   -1.165378    0.347269
C       0.701594   -0.448916   -1.219841
C       1.319903   -0.876010   -2.161363
C       2.113808   -1.352048   -3.286741
N       1.548791   -2.402910   -3.948575
O       3.176241   -0.852403   -3.602338
H       0.693135    2.137449   -0.376977
H      -0.885199    1.818552   -1.127211
H      -0.771059    2.024736    0.632916
H       0.598706   -0.035840    0.813611
H      -3.259366   -1.666356    0.521652
H       0.681608   -2.811574   -3.647643
H       2.047471   -2.802097   -4.726642
