14

O       0.881660    1.138209    1.293080
C       0.517408    1.699832    0.294981
C       1.154893    1.499423   -1.078206
N       1.264257    2.760079   -1.784488
C       2.286292    3.614817   -1.417011
C       3.064918    3.687648   -0.300158
O       3.879895    4.748923   -0.443306
N       3.592812    5.324409   -1.682871
N       2.667572    4.656889   -2.231137
H      -0.328698    2.422454    0.290807
H       2.113820    0.976221   -0.948301
H       0.483440    0.844858   -1.646573
H       1.127903    2.723710   -2.783593
H       3.145180    3.115720    0.607322
