20

C      -0.071016    1.540956    0.082855
C       0.051930    0.033649   -0.046371
C       0.422291   -0.822206   -1.189740
C       1.690347   -0.509043   -2.010158
C       2.171308    0.919212   -2.358113
O       1.180674    1.832605   -2.774746
C       2.835768    1.040245   -0.933792
C       2.444928   -0.442836   -0.668961
N       1.224037   -0.855462    0.135668
H       0.353173    2.089786   -0.753342
H      -1.137740    1.786314    0.124914
H       0.375704    1.885207    1.022388
H      -0.747695   -0.449643    0.518260
H      -0.206306   -1.664599   -1.469024
H       1.894583   -1.280378   -2.752498
H       2.956643    0.844933   -3.123177
H       1.615868    2.648419   -3.043109
H       3.917078    1.197556   -0.976929
H       2.410453    1.780396   -0.259933
H       3.263523   -1.120856   -0.429700
