21

C      -0.280005    1.507504    0.106408
C       0.062641    0.020902   -0.065982
C       0.919987   -0.501453    1.044414
C       2.401938   -0.203153    1.347672
C       2.505125   -1.622803    2.013594
C       2.911247   -1.696679    3.471736
O       4.267271   -1.277037    3.563984
C       1.013422   -1.821168    1.695314
O       0.295627   -0.745401    2.320221
H       0.625048    2.123513    0.125733
H      -0.908430    1.861520   -0.715930
H      -0.818739    1.672013    1.044130
H      -0.857090   -0.573538   -0.103682
H       0.585006   -0.134071   -1.018518
H       3.023977   -0.112019    0.454353
H       2.580670    0.650557    2.004994
H       3.135827   -2.287558    1.415715
H       2.246826   -1.049366    4.060796
H       2.787886   -2.729017    3.840111
H       4.500286   -1.220923    4.495117
H       0.465250   -2.741563    1.522139
