22

C      -0.057313    1.496069   -0.265108
C       0.027126   -0.014336    0.005466
C      -1.329101   -0.614895   -0.396380
C       1.268567   -0.830212   -0.442429
C       2.162886   -0.028959    0.588511
C       0.851615   -0.489265    1.297648
C       0.152544   -1.118469    2.515630
C      -0.033193   -2.362162    1.565860
N       1.127137   -1.838174    0.723041
H       0.755920    2.081445    0.163854
H      -0.082517    1.694868   -1.343354
H      -0.991714    1.889147    0.152144
H      -1.685227   -0.102422   -1.297486
H      -1.279715   -1.676112   -0.638218
H      -2.093724   -0.464319    0.374576
H       1.552167   -1.132995   -1.455551
H       3.044414   -0.572589    0.924114
H       2.368465    1.018849    0.376612
H       0.829432   -1.329045    3.346518
H      -0.748632   -0.625205    2.886915
H       0.241562   -3.333338    1.983451
H      -1.035223   -2.434474    1.143055
