16

N      -0.205842   -1.237998   -0.144329
C      -0.126242   -0.086475   -0.072102
C      -0.013341    1.360562    0.023620
C      -0.130153    2.061254    1.417213
C       0.960523    1.343317    2.235216
C       2.105067    1.877874    1.353539
O       1.994789    3.315574    1.598498
C       0.811161    3.219173    0.812699
C       1.365286    2.055180   -0.034213
H      -0.682393    1.823187   -0.708484
H      -1.102808    2.249682    1.864497
H       1.064514    1.713859    3.255922
H       0.846136    0.257430    2.241124
H       3.115645    1.488066    1.452138
H       0.387128    4.156685    0.458494
H       1.954456    2.170406   -0.940458
