21

C       0.077026    1.609141   -0.099678
C       1.607302    1.522751   -0.117842
C       2.094403    0.901516    1.150422
O       1.470243    1.179534    2.368467
C       0.842339    0.081753    3.020918
C      -0.612375   -0.081180    2.577729
C      -0.799245   -0.634941    1.156788
C       0.002041    0.047181    0.043090
C       1.536451   -0.009773    0.100052
H      -0.333086    2.197310    0.724914
H      -0.353237    1.962228   -1.038380
H       2.262286    2.094553   -0.764222
H       3.180748    0.851390    1.234046
H       1.412098   -0.844268    2.856506
H       0.879653    0.309404    4.092025
H      -1.124125   -0.745424    3.286384
H      -1.094195    0.899592    2.670409
H      -0.525912   -1.699927    1.151066
H      -1.867462   -0.598598    0.905575
H      -0.327511   -0.369606   -0.913968
H       2.139135   -0.799019   -0.336878
