14

O      -0.179095    1.335834    0.034679
N       0.023888   -0.058904    0.057394
C      -1.088581   -0.669483    0.019916
C      -1.225397   -2.172009    0.042395
C      -2.693953   -2.316369    0.475552
O      -3.361041   -1.192056   -0.090299
C      -2.482293   -0.079687   -0.004262
H       0.721277    1.674676    0.075531
H      -1.084513   -2.580051   -0.965288
H      -0.510052   -2.654049    0.711046
H      -3.181646   -3.218244    0.099356
H      -2.775512   -2.306219    1.574481
H      -2.654891    0.512831    0.908841
H      -2.648314    0.578403   -0.862745
