25

C      -0.089276    1.533849   -0.156374
C      -0.064473    0.081531    0.336619
C      -1.414925   -0.591824    0.203187
C      -1.876708   -1.201449   -1.110573
C      -1.627290   -2.076874    0.097776
C      -0.475290   -3.065827    0.115434
C      -0.019229   -3.427092    1.533979
O      -2.771284   -2.502943    0.801067
C      -3.496249   -3.545530    0.179463
H       0.892654    2.005893   -0.051894
H      -0.379466    1.584722   -1.211002
H      -0.809633    2.130999    0.413328
H       0.693782   -0.475708   -0.225577
H       0.255083    0.059351    1.386594
H      -2.209590   -0.102332    0.761528
H      -2.904279   -1.036244   -1.414893
H      -1.164193   -1.247944   -1.929326
H      -0.775824   -3.976288   -0.419061
H       0.361098   -2.653332   -0.457681
H      -0.857132   -3.809755    2.122949
H       0.764178   -4.190839    1.513410
H       0.377264   -2.550745    2.056611
H      -4.410237   -3.685318    0.762272
H      -3.767709   -3.291768   -0.855122
H      -2.943172   -4.495332    0.168689
