18

C       0.058822    1.344228   -0.223718
N       0.236020   -0.088468   -0.118111
C       0.577458   -0.627781    1.109488
C       1.104150    0.019408    2.222082
N       1.165119   -0.994329    3.172252
C       1.924272   -1.696882    4.235509
C       1.357050   -3.041596    3.639365
C       0.785656   -2.136817    2.563501
N       0.412806   -1.993367    1.315051
H       1.014412    1.852602   -0.049189
H      -0.266552    1.594027   -1.236203
H      -0.672996    1.751919    0.493466
H      -0.456780   -0.646512   -0.594367
H       1.282138    1.058103    2.434575
H       3.008122   -1.595916    4.131768
H       1.618189   -1.428244    5.249714
H       2.125116   -3.741578    3.302897
H       0.638319   -3.569279    4.270895
