21

O      -0.153141    1.580243    0.609717
C      -0.071560    0.245312    0.122751
C       0.620409   -0.683161    1.130033
C      -0.503170   -0.901447    2.147523
O      -1.708020   -0.901409    1.384975
C      -1.491882   -0.342684    0.094778
C      -2.606168    0.591861   -0.434598
C      -2.501622   -0.120292   -1.811698
C      -1.766452   -1.292408   -1.107812
H       0.743595    1.913652    0.712612
H       0.394895    0.222334   -0.871079
H       0.894859   -1.625708    0.644098
H       1.524874   -0.244471    1.561617
H      -0.424945   -1.852404    2.684176
H      -0.525604   -0.086580    2.883817
H      -3.546342    0.360197    0.071931
H      -2.417038    1.664039   -0.381370
H      -3.434819   -0.356147   -2.326367
H      -1.851154    0.419193   -2.505662
H      -0.908629   -1.750038   -1.610486
H      -2.457768   -2.079578   -0.796678
