18

C      -0.313747    1.312778   -0.091552
O       0.198626    0.003783    0.091245
C       0.791283   -0.528527   -1.043657
C      -0.045453   -1.072315   -2.174323
C       0.759847   -2.009260   -1.293664
C       2.147074   -2.370308   -1.783960
O       2.733373   -1.138285   -2.210303
C       2.206343   -0.089426   -1.407674
H       0.481487    2.040670   -0.305891
H      -1.047334    1.346960   -0.908836
H      -0.804037    1.594487    0.842978
H      -1.118360   -1.079476   -2.017505
H       0.275864   -0.907025   -3.198276
H       0.238528   -2.668718   -0.610865
H       2.730543   -2.827875   -0.968869
H       2.164991   -3.047155   -2.644446
H       2.269472    0.829992   -1.998969
H       2.778585    0.049261   -0.475487
