21

C      -0.037865    1.574188    0.018970
C       0.041051    0.075301   -0.003646
C      -0.877546   -0.813851    0.786901
C       0.609009   -0.909401    1.026384
C       1.257812   -1.737714   -0.079394
C       2.772653   -2.024292   -0.038913
O       2.555070   -3.447989   -0.057066
C       1.125911   -3.273250   -0.152959
C       0.673653   -0.752313   -1.135586
H       0.927939    2.030484   -0.227430
H      -0.772502    1.944429   -0.706816
H      -0.338800    1.939774    1.006357
H      -1.438392   -0.318822    1.574002
H      -1.413640   -1.633192    0.311133
H       1.046849   -0.716718    2.000267
H       3.338039   -1.681889   -0.916987
H       3.296644   -1.698459    0.869801
H       0.594272   -3.744631    0.683808
H       0.729295   -3.668562   -1.098042
H      -0.017388   -1.171455   -1.876258
H       1.467052   -0.215164   -1.664669
