13

C      -0.004346    1.530865    0.013771
C       0.063879    0.022433   -0.012793
O       0.733323   -0.436110   -1.188787
C       1.780054   -1.216261   -0.834747
N       2.539253   -1.781758   -1.662290
C       1.831120   -1.239872    0.673964
O       2.614184   -1.803866    1.375832
O       0.801352   -0.474954    1.109384
H       1.003781    1.952559   -0.004406
H      -0.557270    1.885537   -0.859412
H      -0.517987    1.861821    0.919615
H      -0.930589   -0.437494    0.014018
H       3.249177   -2.303933   -1.145391
