16

C       0.019825    1.504295    0.249875
C      -0.020732    0.002068   -0.090553
C      -1.411005   -0.541249   -0.120100
C      -2.170884   -0.988481   -1.129024
C      -3.474757   -1.400690   -0.599490
N      -4.450049   -1.871750   -1.246102
O      -3.466738   -1.184846    0.771445
C      -2.229395   -0.662094    1.123807
O      -1.949538   -0.388537    2.253042
H       1.054716    1.855886    0.279574
H      -0.519125    2.091130   -0.499919
H      -0.434120    1.689624    1.226227
H       0.460229   -0.181537   -1.056269
H       0.550086   -0.546847    0.667934
H      -1.928108   -1.064786   -2.179194
H      -5.236027   -2.073469   -0.625231
