15

O       0.710774    1.823547    0.822206
C       0.242454    0.622049    0.269907
C       0.406015    0.665432   -1.281951
C      -0.058081   -0.519678   -1.987165
C      -0.437194   -1.508638   -2.555303
C       1.029584   -0.550868    0.836102
O       2.149322   -0.400916    1.273762
C       0.383501   -1.935196    0.919866
O      -0.807012   -2.096699    0.911612
H       1.621974    1.655453    1.105235
H      -0.816809    0.494914    0.513521
H      -0.134776    1.554449   -1.623003
H       1.468032    0.842711   -1.492946
H      -0.780864   -2.378335   -3.058809
H       1.117165   -2.753383    1.070239
