20

C      -0.248964    1.474533    0.087988
N       0.126616    0.068737   -0.046459
C       0.760981   -0.510183    1.132905
C      -0.153794   -0.508071    2.302864
N      -0.921396   -0.486274    3.168047
C       1.296306   -1.937091    0.847170
C       2.310432   -1.903048   -0.302579
C       1.901577   -2.575179    2.103671
H       0.655047    2.078810    0.220641
H      -0.735705    1.800914   -0.834724
H      -0.925334    1.681758    0.932042
H      -0.689989   -0.484128   -0.288690
H       1.615459    0.129614    1.393607
H       0.433016   -2.542337    0.535823
H       2.624080   -2.918533   -0.562756
H       1.889057   -1.425083   -1.188302
H       3.207588   -1.343943   -0.010446
H       1.176506   -2.645007    2.918817
H       2.257685   -3.585087    1.880085
H       2.759777   -1.994457    2.462388
