18

C      -0.021235    1.473328   -0.049445
N      -0.016720    0.019134   -0.036709
C      -1.214762   -0.652846    0.052159
O      -2.286085   -0.104115    0.231442
N      -1.123762   -2.038252   -0.060407
C      -2.324857   -2.887073   -0.028081
C      -1.689503   -4.304262   -0.066540
N      -0.238359   -4.124257    0.147848
C      -0.023730   -2.870754    0.126388
H       0.966178    1.838702    0.243383
H      -0.278904    1.888941   -1.032200
H      -0.762527    1.823135    0.668968
H       0.731748   -0.431273   -0.537924
H      -2.894863   -2.693387    0.885487
H      -2.972646   -2.670388   -0.879738
H      -2.097981   -4.965999    0.702003
H      -1.845632   -4.798159   -1.032543
H       0.959455   -2.433213    0.262811
