20

C       0.078668    1.511741    0.074330
C      -0.032721   -0.018702   -0.014451
C       0.665801   -0.667570    1.195663
C      -1.526490   -0.425304   -0.032611
C       0.565761   -0.484348   -1.360212
O       0.610638    0.242930   -2.321037
C       1.069096   -1.926781   -1.449983
O       1.352762   -2.236332   -2.789783
H       1.125294    1.828930    0.120137
H      -0.370881    1.984062   -0.800553
H      -0.427288    1.875249    0.974623
H       0.219150   -0.292662    2.122537
H       0.562527   -1.756779    1.205827
H       1.733237   -0.424399    1.223744
H      -2.043700    0.031717   -0.881165
H      -1.656099   -1.510561   -0.098155
H      -2.014630   -0.087073    0.887558
H       1.959259   -2.006176   -0.802933
H       0.309518   -2.596684   -1.013371
H       1.720755   -3.124324   -2.815487
