21

C      -0.126829    1.535586    0.042220
C       0.003120    0.029418    0.049417
O      -1.164070   -0.640469   -0.359793
C       1.324230   -0.631531   -0.276411
C       0.766229   -0.685392    1.131557
C       1.412740    0.043700    2.313526
C       1.476639   -1.066457    3.375992
O       0.343339   -1.879826    3.122581
C       0.249840   -2.011188    1.710799
H       0.789737    2.022622    0.385415
H      -0.334348    1.898495   -0.972019
H      -0.951972    1.854363    0.687638
H      -1.281404   -0.483045   -1.303118
H       1.283782   -1.547661   -0.859078
H       2.190794   -0.005415   -0.469312
H       2.397215    0.458221    2.078847
H       0.775627    0.861604    2.665694
H       2.408021   -1.648718    3.271266
H       1.410748   -0.702524    4.404432
H      -0.790103   -2.215306    1.451449
H       0.872351   -2.851303    1.360785
