19

C      -0.000066    1.568083   -0.026072
C       0.047202    0.048786    0.027254
O       0.698166   -0.456063   -1.149360
C       1.606244   -1.496430   -0.828819
C       3.075786   -1.022047   -0.583994
C       2.817510   -1.082146    0.934009
O       2.114808    0.087588    1.418502
C       0.819110   -0.533075    1.209991
C       1.474112   -1.820343    0.689702
H       1.010694    1.974572    0.048657
H      -0.450053    1.896993   -0.966186
H      -0.600584    1.963171    0.800014
H      -0.977702   -0.357522    0.061807
H       1.482080   -2.310156   -1.547195
H       3.798025   -1.783451   -0.896918
H       3.351932   -0.051649   -1.001012
H       3.612933   -1.391612    1.614514
H       0.236289   -0.560717    2.136164
H       1.188297   -2.806404    1.045577
