21

C      -0.193059    1.526170   -0.029458
C       0.061115    0.025565    0.016274
O       0.793112   -0.356104   -1.163829
C       1.856486   -1.261013   -0.858793
C       2.940772   -0.512762   -0.071457
C       2.285801    0.001206    1.241237
C       0.828936   -0.480034    1.247651
O       0.815524   -1.911310    1.225759
C       1.309069   -2.416438   -0.020327
H       0.741017    2.094388   -0.000428
H      -0.710921    1.781571   -0.958188
H      -0.821701    1.839139    0.810812
H      -0.906548   -0.499555    0.007094
H       2.229462   -1.628179   -1.818706
H       3.785189   -1.178761    0.134386
H       3.314729    0.312587   -0.682956
H       2.786615   -0.405701    2.123539
H       2.334877    1.091264    1.317038
H       0.308246   -0.191470    2.164473
H       0.495320   -2.918997   -0.560610
H       2.094273   -3.156398    0.184600
