20

C      -0.073440    1.593953    0.103465
C      -0.024395    0.066962   -0.006352
N      -1.340884   -0.546028   -0.017393
C      -2.075160   -0.862090    1.118188
C      -3.338325   -1.241445    0.723819
N      -4.428655   -1.584796    1.551409
C      -3.374676   -1.166033   -0.699201
C      -2.132482   -0.734571   -1.120356
N      -1.631994   -0.423470   -2.406746
H       0.940302    2.006110    0.144296
H      -0.585572    2.018650   -0.763709
H      -0.608593    1.901391    1.006547
H       0.495929   -0.220649   -0.922846
H       0.534827   -0.360111    0.832951
H      -1.627328   -0.802478    2.097367
H      -4.129664   -1.844410    2.483459
H      -4.967666   -2.351654    1.167185
H      -4.208293   -1.416781   -1.338738
H      -2.395869   -0.205740   -3.035067
H      -1.115888   -1.197464   -2.817084
