20

C      -1.226473    0.534127    0.101702
C       0.239346    0.109572   -0.024926
C       0.874447    0.689356   -1.280370
C       2.156902    0.693030   -1.647802
C       3.338669    0.098242   -0.928982
C       2.990822   -0.731705    0.310948
N       2.284919    0.017411    1.336261
C       1.017180    0.521566    1.237788
O       0.542829    1.234211    2.101656
H      -1.303818    1.619509    0.202004
H      -1.788070    0.219797   -0.783482
H      -1.687840    0.089920    0.985930
H       0.274548   -0.987488   -0.083464
H       0.165652    1.180474   -1.944087
H       2.405060    1.189515   -2.584279
H       3.901196   -0.537050   -1.627986
H       4.030595    0.904558   -0.643987
H       2.398269   -1.605315    0.014625
H       3.907340   -1.121118    0.762430
H       2.801694    0.355268    2.134420
