20

C      -0.079215    1.512719   -0.006132
C       0.040389    0.015618   -0.022299
C       0.471255   -0.813141   -1.262208
C      -0.423005   -1.826995   -0.518925
C       0.386834   -2.178603    0.745609
C       0.753802   -0.730006    1.120743
C       1.998282   -0.266852    1.770586
N       0.721008   -0.304379    2.516041
O      -1.242752   -0.706662   -0.056472
H       0.908493    1.982468   -0.051614
H      -0.662357    1.855596   -0.864240
H      -0.586866    1.857902    0.901023
H       0.003972   -0.441691   -2.175410
H       1.530722   -1.038465   -1.411016
H      -0.987289   -2.611401   -1.022031
H      -0.233723   -2.643882    1.513910
H       1.252424   -2.816199    0.543569
H       2.741908   -0.987088    2.102289
H       2.407534    0.699938    1.485341
H       0.337062    0.634209    2.602009
