23

C       0.118149    1.357332   -0.013241
O      -0.105934    0.002521   -0.316027
C      -1.384555   -0.542505   -0.095799
C      -2.400264    0.108279    0.809641
C      -2.615310    0.088700   -0.696150
C      -1.280597   -2.046939   -0.093090
C      -0.562166   -2.757445   -1.278422
C       0.060377   -3.746383   -0.256330
C      -0.270330   -2.733033    0.872213
H       1.142155    1.576853   -0.325827
H      -0.557588    2.033967   -0.556792
H       0.030316    1.564078    1.062432
H      -3.006570   -0.536489    1.437073
H      -2.174352    1.068216    1.257998
H      -2.509145    1.033286   -1.218311
H      -3.374139   -0.564449   -1.113609
H      -2.283504   -2.463305    0.046536
H      -1.186677   -3.167677   -2.075983
H       0.192621   -2.102010   -1.718303
H      -0.529639   -4.663513   -0.165770
H       1.108143   -4.022939   -0.395343
H       0.572366   -2.068593    1.076594
H      -0.655580   -3.123347    1.817666
