14

N      -0.033450    1.375374    0.130716
C      -0.041629    0.013185    0.039016
C      -1.211281   -0.725006   -0.005807
O      -2.421917   -0.052214   -0.078683
C      -1.081448   -2.120043   -0.077699
N       0.044938   -2.798150   -0.072357
C       1.231652   -2.106380   -0.009284
O       2.343696   -2.588016    0.014509
N       1.122395   -0.676512    0.025178
H       0.768419    1.871077   -0.227028
H      -0.925617    1.798762   -0.080362
H      -2.903545   -0.174446    0.746768
H      -2.001579   -2.703925   -0.145653
H       2.010096   -0.196567    0.085165
