23

C       0.021235    1.268610   -0.274701
C      -0.037846   -0.210777    0.146779
C       0.715978   -0.502858    1.413292
C       0.188995   -0.878113    2.583843
C       1.211484   -1.068019    3.680025
C       2.547268   -0.954438    2.920504
C       3.085341   -2.252816    2.246599
C       3.024648   -1.562316    0.854959
C       2.222716   -0.388911    1.497872
H       1.050655    1.594835   -0.453226
H      -0.543853    1.432690   -1.197497
H      -0.402266    1.912174    0.502830
H      -1.084422   -0.511626    0.269698
H       0.367151   -0.824141   -0.670328
H      -0.874383   -1.022815    2.752339
H       1.104555   -0.302734    4.462021
H       1.111675   -2.037228    4.187532
H       3.316130   -0.413628    3.475398
H       4.071724   -2.592233    2.571959
H       2.388413   -3.090448    2.341211
H       4.007952   -1.246470    0.495399
H       2.527789   -2.114296    0.052003
H       2.581285    0.613983    1.241903
