18

C      -0.284910    1.548784   -0.074185
C      -0.036469    0.056439    0.024505
C       1.201209   -0.580938   -0.670932
N       2.068952    0.106928    0.375593
C       0.922306   -0.519122    1.140453
C       0.741178   -0.456291    2.615500
O       0.189210   -1.339844    3.230403
C       1.067351   -1.805563    0.273980
O      -0.009869   -2.677183    0.095538
H       0.637495    2.116809    0.055568
H      -0.708093    1.792186   -1.055127
H      -1.010167    1.873404    0.679709
H      -0.944941   -0.534790   -0.085962
H       1.468694   -0.564055   -1.728201
H       2.919377   -0.447771    0.528115
H       1.128498    0.454254    3.122273
H       2.012702   -2.340890    0.449314
H      -0.245722   -3.021319    0.964945
