17

C       0.019834    1.424291    0.158275
O       0.008540    0.023129   -0.003082
C       0.579190   -0.504547   -1.197973
C      -0.175468   -0.061685   -2.462828
C       2.085345   -0.215365   -1.314675
C       0.390921   -2.018201   -1.029173
O       0.745453   -2.831657   -1.840724
H       1.037459    1.837463    0.178314
H      -0.551755    1.942525   -0.623643
H      -0.453190    1.627216    1.122323
H       0.021381    0.987825   -2.698523
H       0.152281   -0.671919   -3.307981
H      -1.253567   -0.195020   -2.333157
H       2.596439   -0.457415   -0.378157
H       2.508120   -0.831307   -2.112153
H       2.272947    0.834971   -1.554207
H      -0.108984   -2.298363   -0.076992
