18

C      -1.932888    0.799525    0.608248
N      -1.017574   -0.283194    0.308646
C      -0.389002   -0.794683    1.275975
N       0.580255   -1.813257    1.089354
C       1.036396   -2.058291   -0.212175
O       1.787605   -2.944240   -0.538682
C       1.005829   -2.536885    2.241484
C       2.282029   -3.333330    2.141456
N       0.282179   -2.429032    3.283532
H      -1.620499    1.701338    0.069584
H      -2.931745    0.539638    0.241185
H      -2.001540    1.037874    1.680658
H      -0.508068   -0.526315    2.326412
H       0.604281   -1.328307   -0.908893
H       2.558771   -3.673222    3.142153
H       2.160075   -4.193180    1.481491
H       3.096815   -2.738449    1.722004
H       0.699324   -2.943201    4.056934
