14

O      -0.118568    1.366019    0.092440
C       0.071106    0.028237   -0.025936
C       1.217749   -0.650264    0.142765
N       1.197024   -2.048101   -0.028525
C       0.098583   -2.788752   -0.355877
O       0.118148   -3.998838   -0.495795
C      -1.184489   -2.001469   -0.541161
N      -2.294027   -2.542848   -0.847075
N      -1.089289   -0.630852   -0.357189
H       0.715489    1.787029    0.323561
H       2.159866   -0.194820    0.402412
H       2.049647   -2.573968    0.094267
H      -2.132773   -3.548334   -0.931835
H      -1.935345   -0.091994   -0.477158
