21

C      -0.013211    1.537451    0.009876
C       1.543256    1.548957   -0.033655
C       1.536447    0.024995    0.177206
O       2.436147   -0.793513   -0.590099
C       2.971673   -1.400435    0.606979
C       1.894597   -0.728361    1.479606
C       0.641686   -1.573100    1.795523
C      -0.559186   -0.778546    1.220159
C      -0.002882   -0.025491   -0.008724
H      -0.431653    1.947946    0.932568
H      -0.507948    2.020765   -0.834703
H       1.933666    1.790845   -1.025988
H       2.072091    2.156856    0.706022
H       2.952322   -2.496005    0.562501
H       3.999307   -1.066320    0.798008
H       2.249387   -0.142115    2.329625
H       0.717476   -2.539644    1.284011
H       0.528220   -1.786661    2.862207
H      -1.403082   -1.432491    0.982268
H      -0.919832   -0.058343    1.964018
H      -0.324723   -0.454661   -0.960073
