19

C      -0.025940    1.499318    0.061249
C      -0.021044    0.000437   -0.010894
C      -0.055386   -0.660837   -1.181103
C      -0.015828   -2.130255   -1.283676
O      -0.100588   -2.706429   -2.350716
C       0.171812   -2.886303    0.029390
C      -0.482832   -2.164628    1.210188
O      -0.202862   -2.790458    2.453503
C       0.035359   -0.732059    1.307556
H       0.840413    1.861055    0.629548
H      -0.006607    1.956984   -0.930178
H      -0.915099    1.858307    0.594747
H      -0.105986   -0.129166   -2.126909
H      -0.214033   -3.902243   -0.099707
H       1.250070   -2.965933    0.226655
H      -1.571558   -2.126534    1.039477
H      -0.546341   -3.689151    2.419806
H       1.074646   -0.762433    1.667079
H      -0.528056   -0.184125    2.071179
