19

C      -0.210617    1.630361   -0.038329
C       0.017930    0.126721   -0.007400
O      -1.235243   -0.555189   -0.089631
C       1.081737   -0.569801   -0.914087
C       2.393533    0.132285   -0.526169
C       2.337854   -0.378507    0.932089
O       2.483718   -1.813592    0.712376
C       1.146250   -1.727206    0.209072
C       0.781645   -0.554805    1.141248
H       0.692501    2.206081    0.175890
H      -0.583986    1.949818   -1.019660
H      -0.965973    1.892953    0.708421
H      -1.624013   -0.345757   -0.945873
H       0.871369   -0.771419   -1.964269
H       3.278176   -0.270739   -1.023116
H       2.370017    1.215916   -0.650353
H       3.011126    0.023564    1.687701
H       0.620144   -2.668287    0.083093
H       0.387113   -0.671088    2.148743
