17

O       0.308895    1.455219   -0.125370
C       0.145510    0.064074   -0.044629
C       0.051216   -0.633139    1.328732
C      -1.471120   -0.272686    1.483965
C      -1.852810   -1.745339    1.789016
C      -3.188970   -2.201718    1.461420
C      -4.298913   -2.577576    1.189397
C      -0.744427   -1.829579    0.705286
C      -1.265478   -0.559170   -0.049793
H      -0.320061    1.872692    0.473311
H       0.862470   -0.366075   -0.750651
H       0.782551   -0.698633    2.135768
H      -1.899656    0.622009    1.938314
H      -1.547799   -2.099014    2.780700
H      -5.278287   -2.910698    0.950129
H      -0.318089   -2.721673    0.246344
H      -2.038460   -0.538766   -0.817249
