18

C       0.019270    1.375140    0.169054
C      -0.147335   -0.098623    0.488668
O       1.140345   -0.627259    0.818120
C       1.129327   -1.972104    1.097312
C       2.199308   -2.479093    2.005500
C       0.762990   -2.416196    2.521180
O       0.403871   -1.394008    3.394494
C       0.037075   -3.655033    2.681615
N      -0.542947   -4.648119    2.811642
H       0.704417    1.513532   -0.672043
H      -0.947166    1.815119   -0.093504
H       0.421265    1.910513    1.033536
H      -0.829543   -0.245987    1.335393
H      -0.557489   -0.643831   -0.375617
H       0.776926   -2.622666    0.295647
H       2.646309   -3.447543    1.816028
H       2.853123   -1.721554    2.423074
H       0.762444   -1.594649    4.266645
