18

C      -0.094358    1.475145   -0.064734
C      -0.009429   -0.031470    0.087225
C      -1.125983   -0.776984   -0.615178
O       1.292152   -0.602739   -0.061404
C       0.725769   -0.640127    1.249002
C       1.410648    0.178921    2.326840
C       0.314807   -2.005016    1.741636
O       0.227238   -3.000152    1.070039
H       0.769569    1.989996    0.354427
H      -0.148501    1.727294   -1.129287
H      -1.001473    1.860484    0.412484
H      -1.118026   -0.515365   -1.678806
H      -1.004678   -1.855138   -0.525539
H      -2.100401   -0.484048   -0.209721
H       1.734061    1.149796    1.955242
H       0.741276    0.338206    3.178995
H       2.297769   -0.348928    2.694021
H       0.093685   -2.028504    2.833851
