15

O       0.263456    1.446316    0.334641
C      -0.023115    0.114746    0.039309
C      -1.516286   -0.204358   -0.226010
N      -1.516698   -1.412581   -1.061523
C      -0.377844   -1.298199   -1.978054
C       0.580158   -0.292931   -1.343087
O       1.554761    0.236291   -1.798745
C       0.507505   -0.815633    1.058129
N       0.912458   -1.569425    1.836405
H       1.099088    1.652963   -0.114232
H      -2.097198   -0.356697    0.683464
H      -1.939668    0.644299   -0.775948
H      -1.407334   -2.229808   -0.471616
H       0.112956   -2.257558   -2.162546
H      -0.685890   -0.899041   -2.953899
