20

C       0.046415    1.604502   -0.048813
C       0.038663    0.068689   -0.010809
C      -1.403991   -0.504165    0.065817
C      -2.110990   -0.153391    1.348952
C      -1.648049   -0.750912    2.651037
N      -3.096892    0.655675    1.246366
O      -3.679095    0.921088    2.496429
C       0.701506   -0.478486   -1.260228
O       1.629098   -1.244768   -1.277152
H       1.068186    1.994208   -0.022944
H      -0.436728    1.975278   -0.960061
H      -0.502782    2.016144    0.801431
H       0.622916   -0.295567    0.840683
H      -1.996098   -0.126611   -0.773657
H      -1.354161   -1.597273   -0.022731
H      -1.243001    0.023273    3.311760
H      -2.495027   -1.196057    3.181323
H      -0.881415   -1.511723    2.492498
H      -4.409302    1.502532    2.259913
H       0.242869   -0.110675   -2.210278
