17

C       0.506756    1.450451   -0.104311
O       1.071926    0.214334   -0.517576
C      -0.285645    0.205396   -0.042322
C      -0.551298   -0.462823    1.202129
C      -0.792508   -1.038724    2.233519
C      -1.091304   -1.724676    3.470429
C      -2.129735   -1.101782    4.448177
O      -2.854891   -2.341488    4.528517
C      -2.092149   -2.915598    3.451714
H       0.905857    1.865204    0.819287
H       0.302970    2.168444   -0.897853
H      -1.021192    0.039395   -0.828859
H      -0.165970   -1.990155    3.989278
H      -1.748920   -0.777997    5.422477
H      -2.727589   -0.297982    4.000794
H      -2.672077   -2.987788    2.523317
H      -1.684986   -3.899009    3.708449
