14

O      -0.081572    0.011788    0.218483
C      -0.006599    1.165879   -0.105008
C       1.309126    1.954265   -0.029306
C       1.377716    2.784936    1.304059
C       2.311471    1.661029    1.813060
N       2.463608    1.164038    0.418995
C       1.486275    2.702452   -1.277169
N       1.586275    3.300885   -2.260944
H      -0.884230    1.746342   -0.457796
H       1.870546    3.745642    1.158662
H       0.430083    2.933073    1.823625
H       3.251847    1.979745    2.269678
H       1.804572    0.959889    2.484786
H       2.302033    0.166612    0.306838
