13

C      -0.367965    1.476188    0.082076
C       0.170435    0.068415   -0.046192
O       0.560183   -0.574437    0.907503
C       0.202587   -0.519842   -1.424412
C       1.489626   -1.174031   -1.832150
N       0.317999   -1.981527   -1.529699
H       0.155503    2.150790   -0.604688
H      -1.426787    1.494443   -0.202159
H      -0.259855    1.827695    1.108416
H      -0.407571   -0.039256   -2.183564
H       1.782567   -1.143189   -2.877665
H       2.302216   -1.143710   -1.111530
H       0.407189   -2.330459   -0.573927
