21

C      -0.768706    1.073773   -0.092959
O      -0.953003   -0.229144   -0.601207
C       0.047986   -0.628636   -1.477709
C       1.348441   -1.283984   -0.922091
O       0.532570   -2.419427   -0.451735
C       0.036581   -2.137965   -1.829620
C      -1.087672   -2.970118   -2.359563
C       1.533188   -2.034086   -2.271296
C       2.002682   -1.385559   -3.565677
H       0.139438    1.149522    0.522841
H      -0.702058    1.820572   -0.900196
H      -1.636227    1.303873    0.529600
H       0.163086    0.089330   -2.300657
H       2.103168   -0.891693   -0.239725
H      -1.986456   -2.814479   -1.756071
H      -1.311962   -2.692428   -3.394587
H      -0.824791   -4.031741   -2.333349
H       2.034199   -2.989161   -2.094072
H       1.527169   -0.424488   -3.774366
H       3.085009   -1.219578   -3.535276
H       1.799877   -2.046564   -4.415410
