23

C      -0.336312    1.566853    0.136030
C      -0.093751    0.058313    0.090896
C      -1.329568   -0.690572    0.593903
C       0.407678   -0.534641   -1.244894
C       1.761788   -0.014278   -1.627906
C       1.666903   -1.077845   -0.566705
C       1.218901   -0.502581    0.781394
C       2.164463    0.425045    1.522625
O       1.512777    0.835892    2.721061
H       0.489702    2.136395   -0.299271
H      -1.241823    1.826272   -0.424409
H      -0.461555    1.902355    1.169785
H      -2.209551   -0.447704   -0.013798
H      -1.181433   -1.774874    0.547421
H      -1.550655   -0.422215    1.632585
H      -0.233043   -1.030972   -1.965660
H       2.132039   -0.363891   -2.586919
H       2.068099    1.001007   -1.392093
H       2.140912   -2.043741   -0.696871
H       0.941902   -1.302132    1.475566
H       3.099110   -0.116554    1.744333
H       2.433276    1.293693    0.904393
H       2.077206    1.473537    3.167687
