22

C      -0.307757    1.441572    0.043182
C       0.175687   -0.011021   -0.058483
C       0.899557   -0.464492    1.173361
C       2.265527   -0.012774    1.698248
C       2.147560   -1.177500    2.723405
C       3.361894   -1.824979    3.332265
C       0.929478   -0.721674    3.548859
N       0.049693   -0.895481    2.348486
C       1.065151   -1.817456    1.755878
H       0.531459    2.131598    0.182136
H      -0.840596    1.743660   -0.863386
H      -0.985098    1.559221    0.894162
H      -0.680482   -0.675016   -0.221521
H       0.837545   -0.126714   -0.926698
H       3.043484   -0.204370    0.952764
H       2.380038    1.001531    2.099186
H       3.909742   -1.110645    3.958655
H       3.086050   -2.677181    3.963231
H       4.052712   -2.186840    2.562898
H       0.624738   -1.448092    4.308425
H       0.942809    0.285875    3.983992
H       0.847340   -2.817490    1.401161
