16

C       0.119417    1.467830   -0.038708
O       1.159716    0.502228   -0.204967
C      -0.176176    0.029425    0.025819
C      -0.428392   -0.670826    1.292808
C      -0.346058   -2.178420    1.616681
C      -0.020016   -1.813832    3.085097
C      -0.103374   -0.363541    2.778252
N      -1.335673   -1.095877    3.248200
C      -1.639865   -1.430069    1.788183
H       0.162304    2.047880    0.882070
H      -0.146019    2.034077   -0.930593
H      -0.640682   -0.433007   -0.847515
H      -0.070731   -2.994531    0.964408
H       0.452750   -2.351174    3.897708
H       0.285345    0.507509    3.291598
H      -2.632252   -1.565104    1.376380
