19

C      -0.066401    1.582766    0.004961
C      -0.038418    0.065903   -0.011623
C       1.221079   -0.646882   -0.584210
O       1.988058   -0.200008    0.603556
C       0.683774   -0.679463    1.161633
C       0.475512   -0.617517    2.639494
C       0.820805   -1.887957    0.217230
C       0.161812   -3.166160   -0.003957
O       1.544317   -3.058719    0.427208
H       0.906371    1.979450    0.301517
H      -0.318476    1.976983   -0.985103
H      -0.823720    1.950462    0.705820
H      -0.997185   -0.371180   -0.313179
H       1.698900   -0.553928   -1.558532
H       0.554672    0.412554    2.999353
H      -0.517724   -0.998523    2.898068
H       1.225974   -1.226310    3.152032
H      -0.521789   -3.568745    0.741831
H       0.024425   -3.545821   -1.015039
