14

O      -0.011484   -0.063746   -0.089990
C      -0.051264    1.150222   -0.047406
C       1.186966    1.922465   -0.018437
C       2.223735    2.546055    0.005015
C       3.390361    3.253548    0.031617
N       4.380402    3.860658    0.054445
C      -1.303968    1.940205   -0.021428
C      -2.495812    1.369350   -0.786488
C      -2.498011    1.317078    0.697971
H      -1.191725    3.016742    0.016638
H      -3.132285    2.085473   -1.292456
H      -2.305729    0.445915   -1.321080
H      -2.309428    0.358315    1.166875
H      -3.136106    1.995816    1.251226
