14

O       0.137859    1.374332   -0.043452
C       0.022169   -0.015460   -0.042096
C      -1.400582   -0.495631   -0.016929
N      -2.338521    0.390194   -0.000166
C      -3.651573   -0.022496    0.023654
N      -4.641633    0.752252    0.039281
O      -3.861958   -1.440859    0.030459
C      -2.798584   -2.241799    0.009461
N      -1.571823   -1.877273   -0.014127
H      -0.766876    1.722422   -0.029251
H       0.501002   -0.461985   -0.929583
H       0.532504   -0.462683    0.827240
H      -5.516690    0.230905    0.055442
H      -3.081740   -3.291875    0.015550
