16

C      -0.106397    1.449118   -0.065550
N      -0.029117   -0.003904    0.035250
C       0.023031   -0.567248    1.310521
O       0.006962    0.085465    2.326842
C      -0.002568   -0.884327   -1.075831
O       0.061161   -2.080359   -0.951112
N      -0.057705   -0.215242   -2.293478
C      -0.052198   -0.771443   -3.574856
N       0.007976   -2.009227   -3.825899
H       0.760768    1.861940   -0.592658
H      -1.029161    1.768771   -0.562109
H      -0.108926    1.832247    0.955130
H       0.079416   -1.661244    1.267499
H      -0.110043    0.788453   -2.271557
H      -0.107656    0.029641   -4.323139
H      -0.002926   -2.153939   -4.834350
