17

C      -0.774264    1.002650    0.049009
O       0.447352    0.321240   -0.161774
C       0.975592   -0.316499    0.988570
C       0.132443   -1.422509    1.454318
C      -0.562939   -2.319921    1.848076
C       2.383755   -0.814301    0.558875
O       2.288513   -1.622444   -0.594032
C       3.292498    0.325935    0.376348
C       4.041444    1.253703    0.228027
H      -0.660780    1.799179    0.798846
H      -1.054133    1.450377   -0.906726
H      -1.567089    0.318029    0.376294
H       1.096713    0.413897    1.804093
H      -1.170802   -3.120016    2.192881
H       2.770126   -1.459639    1.354831
H       1.770985   -1.113727   -1.231929
H       4.709054    2.068652    0.092983
