19

O      -0.252427    0.445019   -1.254060
C      -0.106105    1.018869   -0.201690
C       1.101860    1.810652    0.166586
C       2.418042    1.447813   -0.500703
C       1.693249    2.685441   -0.923319
O       1.075751    2.352480    1.453121
C       1.453897    1.464260    2.473714
C       2.859023    1.515226    3.014319
C       1.697241    2.078443    3.811268
H      -0.893295    1.019593    0.585204
H       3.308128    1.554551    0.105707
H       2.390226    0.589363   -1.162321
H       1.177930    2.682141   -1.876693
H       2.072889    3.642649   -0.585942
H       0.957095    0.496313    2.430753
H       3.325529    0.592796    3.342293
H       3.533909    2.234602    2.564918
H       1.615650    3.157993    3.866113
H       1.356751    1.550226    4.694334
