14

C      -0.091552    1.463061    0.010550
C      -0.001614    0.012209    0.002569
C       0.081417   -1.191758   -0.004092
C       0.161987   -2.599278   -0.011795
C       1.241232   -3.474509   -0.022773
C       0.665818   -4.757681   -0.025896
N      -0.666080   -4.707826   -0.017619
N      -0.947568   -3.397430   -0.009208
H       0.905652    1.916202    0.003384
H      -0.631579    1.834580   -0.867602
H      -0.614939    1.825919    0.902297
H       2.283567   -3.203114   -0.027652
H       1.163932   -5.715927   -0.033809
H      -1.906539   -3.092321   -0.001857
