20

C      -0.254264    1.428346   -0.040304
N       0.010356   -0.002671    0.021230
C       1.162431   -0.490850   -0.826307
C       2.157190   -0.114576    0.302234
C       0.907802   -0.461321    1.174560
C       0.662525    0.000810    2.581315
C       0.793808   -1.968313    0.886534
O       0.613715   -2.864636    1.663335
C       0.983039   -2.007664   -0.644320
H       0.622099    2.088005    0.074955
H      -0.714984    1.652127   -1.008190
H      -0.977042    1.692608    0.737590
H       1.244088   -0.097243   -1.839430
H       3.068673   -0.709334    0.423350
H       2.403933    0.946952    0.335481
H       0.772439    1.084197    2.682551
H      -0.344113   -0.282598    2.904356
H       1.372273   -0.482870    3.259332
H       0.092931   -2.396253   -1.143726
H       1.851361   -2.608195   -0.930342
