16

O      -0.265083    0.101324   -0.393721
C      -0.024567    1.180708    0.084372
C       1.261911    1.947708   -0.059394
N       2.459131    1.302085   -0.765309
C       1.713960    1.603074   -2.082412
C       1.489392    2.916462   -1.283181
C       2.981508    2.743554   -0.899734
C       0.761886    4.104362   -1.636764
C       0.151602    5.098254   -1.931278
H      -0.779543    1.717300    0.704067
H       1.520052    2.383956    0.913393
H       2.378651    1.667014   -2.946458
H       0.865859    0.948122   -2.267161
H       3.323149    3.184472    0.039888
H       3.717795    2.862837   -1.697352
H      -0.386788    5.975542   -2.193943
