21

C      -0.022506    1.612578   -0.025713
C       0.106717    0.095089   -0.010687
C       0.712259   -0.656670   -1.189334
C       2.262466   -0.764292   -1.111045
C       3.004317    0.151889   -0.200310
C       2.406569    0.166109    0.995575
C       1.144781   -0.669234    0.943404
C       0.610338   -1.204732    2.256207
C       1.382271   -1.642715   -0.266785
H       0.933371    2.098310   -0.234657
H      -0.733009    1.921896   -0.801027
H      -0.397180    1.991923    0.932270
H      -0.872058   -0.354317    0.194384
H       0.222231   -0.840261   -2.139212
H       2.728825   -1.170983   -2.001307
H       3.864380    0.737417   -0.501935
H       2.666412    0.795717    1.838830
H       0.342198   -0.388093    2.936524
H      -0.285192   -1.816118    2.101948
H       1.357993   -1.825476    2.762797
H       1.375620   -2.726769   -0.255794
