16

C      -0.011347    1.407457    0.091434
N      -0.008592   -0.034504    0.030346
N      -0.037658   -0.673284   -1.174920
N      -0.027555   -1.946955   -0.935396
C       0.007708   -2.169687    0.406899
C       0.020243   -0.942550    1.040113
N       0.053101   -0.543819    2.366140
C       0.084228   -1.383844    3.458760
N       0.085950   -2.650798    3.355090
H       0.894881    1.787215    0.576747
H      -0.039444    1.768604   -0.936575
H      -0.893173    1.781788    0.623657
H       0.022138   -3.148650    0.847230
H       0.054702    0.444150    2.555303
H       0.106366   -0.812866    4.393860
H       0.111183   -3.082045    4.275575
