18

C      -0.221697   -1.268541   -0.325651
C      -0.098914   -0.085701   -0.142739
C       0.022129    1.347497    0.058423
C      -0.262688    1.996923    1.450019
C       0.113988    1.044675    2.590227
C       1.606015    0.713141    2.311720
C       2.051944    1.808642    1.350267
C       1.009391    2.835624    1.175693
N       1.406449    1.963070    0.008116
H      -0.322447   -2.312781   -0.491316
H      -0.552404    1.861734   -0.718845
H      -1.224376    2.497710    1.557400
H       0.000827    1.555261    3.552696
H      -0.519048    0.153100    2.604033
H       2.211016    0.748671    3.222953
H       1.731259   -0.281123    1.876110
H       3.101139    2.079944    1.300701
H       1.126516    3.912470    1.169853
