20

C      -0.482119    1.650980    0.305971
C      -0.080512    0.199749    0.184061
O       0.897099   -0.041661   -0.877548
C       1.753609   -0.792775   -0.004659
C       2.879307    0.045532    0.632958
N       1.923993    0.531146    1.676683
C       0.883139   -0.430540    1.223571
C       0.356450   -1.374553    2.274951
O      -0.521033   -2.301063    1.658549
H       0.378355    2.263058    0.583484
H      -0.889355    2.006858   -0.645665
H      -1.259770    1.766929    1.069597
H      -0.952498   -0.445560    0.023345
H       1.971425   -1.797213   -0.373736
H       3.696827   -0.572076    1.026477
H       3.294246    0.839949    0.005203
H       2.241105    0.367026    2.625760
H       1.206110   -1.885971    2.758606
H      -0.157220   -0.787833    3.056713
H      -0.894671   -2.866214    2.340735
