20

N      -0.107345    1.358124    0.208346
C       0.069368    0.031705   -0.084545
O       1.175510   -0.430171   -0.301283
C      -1.220252   -0.769986   -0.084702
C      -1.848705   -1.068586   -1.497184
C      -0.834540   -2.241900   -1.601019
C      -1.077166   -2.322542   -0.065394
C      -2.553565   -2.759685   -0.000179
C      -3.144247   -1.798979   -1.090854
H       0.690973    1.965975    0.121678
H      -1.020606    1.773236    0.267117
H      -1.916422   -0.341267    0.646308
H      -1.924306   -0.292808   -2.260563
H      -1.128019   -3.105182   -2.206386
H       0.175970   -1.919996   -1.840539
H      -0.364971   -2.806736    0.601113
H      -2.679205   -3.815144   -0.257460
H      -2.998580   -2.599724    0.986410
H      -3.903094   -1.120257   -0.689851
H      -3.588424   -2.337836   -1.932844
