17

C       0.180989    1.511236   -0.197888
C       0.049092    0.029568   -0.035815
N       0.066006   -0.772469   -1.098828
N      -0.074317   -2.014030   -0.592957
C      -0.177957   -2.031508    0.755503
C      -0.107169   -0.715304    1.165351
C      -0.171970   -0.214978    2.551789
C      -1.333237   -0.451938    3.432180
O      -0.129241   -1.201381    3.589422
H       1.030444    1.904429    0.372534
H       0.333801    1.754111   -1.251334
H      -0.714313    2.038531    0.150383
H      -0.070216   -2.798834   -1.221316
H      -0.272535   -2.943921    1.321437
H       0.426950    0.672886    2.760219
H      -1.557824    0.246971    4.237464
H      -2.182908   -1.008218    3.039556
