18

O       0.042727    0.014880   -0.411531
C       0.096833    1.222745   -0.331136
N       1.200094    1.943533    0.036931
C       1.120073    3.394099    0.125383
C       0.939902    3.912072    1.484552
C       0.782363    4.342748    2.594847
C       2.406533    1.230444    0.381203
C       3.733778    1.543981   -0.262138
C       3.504270    1.840568    1.204896
H      -0.765308    1.880910   -0.555823
H       2.015990    3.838992   -0.324251
H       0.279848    3.718647   -0.498580
H       0.641238    4.718023    3.578534
H       2.172262    0.186411    0.541813
H       4.368024    0.710889   -0.543405
H       3.791444    2.390884   -0.937921
H       3.419884    2.879192    1.501146
H       3.977598    1.210414    1.949756
