19

O      -0.051601    1.443091   -0.031068
C       0.027016    0.026245    0.040426
C      -1.399281   -0.529890   -0.008253
C      -2.102473   -0.159691   -1.302816
C      -2.547150   -1.134856   -2.095368
C      -2.303170   -2.549676   -1.611459
C      -2.790050   -2.677698   -0.146904
C      -1.399996   -2.064474    0.124057
O      -0.922562   -2.640347   -1.128160
H       0.837289    1.788005   -0.152798
H       0.599321   -0.394033   -0.797993
H       0.511997   -0.295870    0.977096
H      -1.944645   -0.095672    0.842424
H      -2.192397    0.892778   -1.547407
H      -3.064028   -0.951916   -3.031488
H      -2.538066   -3.329786   -2.337789
H      -3.684139   -2.127198    0.150291
H      -2.836381   -3.716102    0.185750
H      -0.822656   -2.415707    0.985084
