19

C      -0.024838    1.502564    0.084261
C       0.007575   -0.028870   -0.002192
C       0.591796   -0.509018   -1.362282
N       2.072287   -0.541235   -1.348104
C       2.422731   -1.547045   -0.369480
C       3.686934   -1.537075    0.525991
O       2.827343   -1.499084    1.723014
C       1.756430   -1.174211    0.922977
N       0.729912   -0.512870    1.193799
H       0.980258    1.908425   -0.065286
H      -0.687096    1.920954   -0.681073
H      -0.380239    1.817537    1.067977
H      -1.022892   -0.400013    0.056216
H       0.175400   -1.504135   -1.600618
H       0.267243    0.176747   -2.149800
H       2.411312   -0.781456   -2.273845
H       2.189471   -2.580449   -0.676287
H       4.318403   -2.427101    0.517957
H       4.279306   -0.621447    0.456795
