24

C       3.670178    0.327655   -0.133500
C       2.170780    0.019338   -0.227566
C       1.871573   -0.954365   -1.346771
N       2.074634   -2.385197   -1.070282
C       0.718568   -1.905575   -1.403926
C      -0.304379   -2.004738   -0.282241
C      -0.884306   -3.415217   -0.104445
C       0.211574   -2.283544   -2.796388
O       0.432424   -3.652691   -3.122915
H       4.237891   -0.590261    0.047506
H       4.043035    0.775877   -1.061401
H       3.881693    1.025949    0.681918
H       1.827502   -0.393599    0.725030
H       1.607954    0.946654   -0.397100
H       2.210786   -0.596423   -2.320797
H       2.461923   -2.874000   -1.874672
H       0.164160   -1.700581    0.656716
H      -1.118013   -1.292981   -0.475619
H      -1.546203   -3.460802    0.765620
H      -1.482676   -3.727296   -0.969379
H      -0.081344   -4.144068    0.047691
H      -0.853008   -2.020011   -2.889881
H       0.753936   -1.724452   -3.564845
H      -0.026479   -4.191695   -2.471220
