21

C      -0.616376    1.495546   -0.100349
C      -0.231247    0.020998   -0.036642
C       0.954018   -0.521578   -0.879739
C       1.921725    0.437763   -1.554569
O       3.096708   -0.252590   -1.935753
O       1.576726   -1.104320    0.301010
C       0.561440   -0.535264    1.176732
C       1.210168    0.412958    2.172833
O       2.163811   -0.285111    2.951126
H       0.229758    2.166542    0.065640
H      -1.045537    1.738171   -1.078031
H      -1.376087    1.726649    0.653533
H      -1.125835   -0.582117   -0.211431
H       0.690515   -1.313221   -1.591698
H       1.478079    0.847381   -2.468969
H       2.155342    1.280577   -0.886088
H       3.398642   -0.717499   -1.145811
H       0.056151   -1.335335    1.731337
H       1.671528    1.263713    1.648293
H       0.459889    0.811884    2.864696
H       2.736631   -0.740578    2.322047
