16

N       0.048920    1.392636    0.068355
C      -0.025317    0.000450    0.031587
C      -1.206612   -0.682122    0.007140
N      -2.437505    0.004711   -0.055157
C      -1.191818   -2.127574   -0.050411
N      -2.309862   -2.777804   -0.139914
C       0.152745   -2.695870   -0.002510
N       1.263146   -2.028680    0.072609
N       1.162127   -0.689351    0.066954
H       0.828429    1.769428   -0.458980
H      -0.821464    1.789250   -0.272904
H      -2.638639    0.517143    0.798425
H      -3.165188   -0.696723   -0.183227
H      -2.143529   -3.782829   -0.194965
H       0.264739   -3.777218    0.000606
H       2.030145   -0.205608    0.229280
