18

O       0.069369    1.445433    0.117956
C       0.015497    0.056791   -0.035272
C       0.415904   -0.839119    1.169380
N      -0.839626   -1.620424    1.018263
C      -1.748970   -1.717168    2.165864
C      -2.703213   -0.540490    2.042496
O      -2.038471    0.729692    1.952120
C      -2.489664    0.098931    0.733772
C      -1.381959   -0.646995    0.023412
H      -0.398296    1.656210    0.935654
H       0.563385   -0.175136   -0.951077
H       1.322934   -1.442826    1.056303
H       0.480121   -0.266485    2.102903
H      -2.325955   -2.652291    2.139401
H      -1.184405   -1.702848    3.104539
H      -3.659389   -0.526502    2.560234
H      -3.267172    0.631578    0.193935
H      -1.752392   -1.093964   -0.906931
