14

C       0.143522    1.155837    0.481047
N      -0.013366   -0.012714   -0.398763
C      -1.227738   -0.710763   -0.245070
C      -1.322100   -2.017472    0.180203
O      -0.383889   -2.910291    0.521438
N      -2.640039   -2.282755    0.193090
N      -3.354356   -1.186011   -0.209557
N      -2.493431   -0.249949   -0.467995
H       1.114582    1.620197    0.286330
H      -0.645062    1.908204    0.348205
H       0.125931    0.824506    1.523392
H       0.112820    0.272194   -1.364727
H       0.463089   -2.455657    0.395999
H      -3.115033   -3.135001    0.441376
