21

O      -0.161952    0.258734   -0.849526
C      -0.035718    1.299673   -0.251106
C       1.245406    2.007200   -0.049541
C       1.216681    3.530796    0.057057
C       1.532178    2.720215    1.269875
C       0.572601    2.687992    2.476650
C       1.474492    2.945034    3.716414
C       2.802547    3.481533    3.149836
C       2.953632    2.713346    1.827933
H      -0.919669    1.813776    0.195246
H       2.089164    1.548118   -0.555109
H       2.011716    4.070113   -0.447138
H       0.241019    4.005512   -0.003304
H      -0.199807    3.456864    2.378223
H       0.054718    1.728833    2.566260
H       1.011995    3.626699    4.434710
H       1.656999    2.002288    4.243413
H       2.722444    4.555759    2.944802
H       3.645818    3.337705    3.830710
H       3.275246    1.683445    2.030489
H       3.680036    3.155258    1.139906
