19

C       0.287497    1.300149   -0.562364
C       0.032092   -0.115919   -0.049914
O       0.277451   -1.118728   -1.030839
C       1.404379   -1.956051   -0.670693
C       2.621985   -1.510164   -1.483474
O       2.315097   -1.443091   -2.856087
C       1.585644   -1.807825    0.838664
C       0.913487   -0.472718    1.151775
O       1.039854    0.191776    2.145012
H       1.323627    1.419993   -0.892141
H      -0.373573    1.525089   -1.403096
H       0.095784    2.015285    0.242420
H      -1.018166   -0.199682    0.266218
H       1.129711   -2.970810   -0.973047
H       2.984916   -0.540379   -1.097264
H       3.435865   -2.234105   -1.361281
H       1.458898   -0.998582   -2.906871
H       1.057861   -2.592387    1.392358
H       2.625717   -1.806922    1.173145
