16

C       0.145306    1.618516    0.071898
C       0.005839    0.102186    0.038180
C       0.552535   -0.650473   -1.252898
N       1.459276   -1.381759   -0.345963
C       1.053544   -0.723010    0.770510
N       1.716068   -1.007090    1.843317
N       2.622254   -1.945774    1.340515
C       2.553218   -2.200586   -0.031640
O       3.237988   -2.927381   -0.713389
H       1.164383    1.927830   -0.179241
H      -0.542830    2.084763   -0.640017
H      -0.087254    2.002764    1.069054
H      -1.016781   -0.200129    0.280770
H      -0.159938   -1.291543   -1.775584
H       1.075374   -0.006432   -1.964133
H       3.316249   -2.338853    1.951765
