13

C      -0.017254    1.452569    0.000540
N       0.001622   -0.005699   -0.030490
C      -0.100931   -0.705519   -1.173434
N      -0.089391   -2.006314   -1.241667
C       0.040353   -2.619123   -0.026091
N       0.148086   -2.066369    1.146483
C       0.135515   -0.687724    1.226330
O       0.225462   -0.034140    2.238471
H       0.907726    1.823753    0.446295
H      -0.122606    1.830863   -1.017747
H      -0.849078    1.797503    0.617984
H      -0.200525   -0.121464   -2.086774
H       0.051942   -3.707379   -0.060816
