22

C       0.094253    1.498107    0.086295
O      -0.024422    0.096660    0.052301
C       0.696180   -0.543826    1.084420
C       0.549221   -2.049678    0.927982
N       1.234361   -2.558589   -0.240864
C       0.666020   -2.330951   -1.591693
C       1.194138   -3.729977   -1.996782
O       2.448387   -3.734759   -2.638302
C       1.234550   -4.018224   -0.472957
H       1.139874    1.823770   -0.032232
H      -0.496541    1.898172   -0.741318
H      -0.288573    1.916853    1.030877
H       1.762868   -0.269832    1.038817
H       0.310019   -0.232269    2.070237
H       0.987229   -2.527964    1.812974
H      -0.529881   -2.300303    0.919947
H      -0.433636   -2.276103   -1.595305
H       1.066190   -1.468435   -2.131727
H       0.537082   -4.355742   -2.601539
H       3.031734   -3.165459   -2.123181
H       2.108242   -4.556697   -0.088297
H       0.316093   -4.517976   -0.121113
