20

O       0.454899    1.026446   -0.165167
C       0.211196   -0.334812   -0.504378
C      -1.247597   -0.703320   -0.348152
C      -1.734189   -2.112643   -0.275501
C      -0.788967   -3.307434   -0.312165
C       0.033043   -3.482992    0.932878
C      -0.047992   -2.671357    1.982331
C      -0.971670   -1.487846    2.055482
N      -1.828502   -1.229753    0.896527
H       0.164916    1.160868    0.742476
H       0.491392   -0.420916   -1.560576
H       0.861295   -1.012793    0.062935
H      -1.897104    0.027096   -0.831476
H      -2.704426   -2.315134   -0.726160
H      -1.384623   -4.216524   -0.469055
H      -0.129894   -3.247296   -1.189995
H       0.707986   -4.334689    0.951265
H       0.552079   -2.857063    2.870087
H      -1.635972   -1.622403    2.921688
H      -0.391476   -0.580772    2.283099
