19

C      -0.482059    1.335075    0.117543
C       0.108368   -0.048867   -0.001676
O      -0.559808   -1.069409    0.769676
C       0.775413   -0.698098    1.138948
C       1.848402   -1.744693    0.958768
C       1.952086   -2.257799   -0.449034
C       1.328869   -1.709056   -1.488448
C       0.414984   -0.516017   -1.419810
O      -0.810383   -0.778944   -2.106163
H       0.251564    2.096392   -0.169246
H      -1.345691    1.428436   -0.547410
H      -0.804733    1.528414    1.143449
H       0.825159   -0.139883    2.075406
H       2.810868   -1.317275    1.276307
H       1.657507   -2.577212    1.650186
H       2.584001   -3.129669   -0.599931
H       1.439184   -2.131484   -2.483797
H       0.865033    0.319491   -1.972408
H      -1.259533   -1.455031   -1.582615
