17

O      -0.005889    1.428696   -0.046910
C       0.015805    0.067330    0.104990
C      -0.174486   -0.922383   -1.045452
C      -1.155983   -0.902151    0.104771
N      -0.612753   -1.539620    1.321068
C      -0.127467   -2.893462    1.612924
C       1.186591   -2.508639    2.376405
N       1.622642   -1.199573    1.797393
C       0.559153   -0.771649    1.253159
H       0.813362    1.701783   -0.475496
H      -0.532145   -0.456646   -1.959932
H       0.507881   -1.755029   -1.188149
H      -2.215258   -0.707793    0.001521
H      -0.830055   -3.466656    2.221558
H       0.094980   -3.460009    0.695664
H       0.993742   -2.395025    3.450680
H       1.978726   -3.251133    2.255218
