18

C       0.273654    1.120457   -0.340346
O      -0.081583    0.092863    0.574796
C      -1.295618   -0.500341    0.319887
C      -1.420418   -1.839198    0.047937
O      -0.494475   -2.823733   -0.064427
N      -2.749572   -2.126461   -0.089065
C      -3.498356   -0.970924    0.084528
C      -4.986043   -0.982139   -0.021265
C      -2.616246    0.050993    0.344006
H       1.265274    1.476130   -0.049347
H       0.305783    0.744571   -1.371928
H      -0.432638    1.959494   -0.297020
H       0.356423   -2.415426    0.136939
H      -3.112641   -3.045532   -0.272670
H      -5.453378   -1.651835    0.712828
H      -5.374938    0.022831    0.159003
H      -5.334005   -1.296621   -1.014253
H      -2.885183    1.078833    0.533764
