18

O      -0.011890    0.018182    0.083582
C      -0.021116    1.212306    0.030954
C      -1.087182    2.301440   -0.032299
C      -1.278828    2.901068    1.403335
C      -0.034492    3.807508    1.507124
C       1.222456    2.919930    1.392831
C       1.027827    2.317393   -0.041191
N      -0.039049    3.189203   -0.688142
C      -0.045141    4.436673    0.101258
H      -2.007910    2.137034   -0.593198
H      -2.201084    3.487592    1.456169
H      -1.327951    2.126879    2.174141
H      -0.036048    4.488463    2.359330
H       2.136174    3.520297    1.437954
H       1.289719    2.146614    2.163143
H       1.946193    2.166869   -0.609806
H      -0.940900    5.026150   -0.115801
H       0.839773    5.039577   -0.123280
