20

O      -0.195547    1.510637   -0.375763
C      -0.045500    0.178343    0.090904
C      -1.385940   -0.525632   -0.073396
C      -1.341569   -1.983102    0.382589
N      -2.664979   -2.589113    0.244084
C      -2.968288   -3.231122   -1.021938
C      -2.759526   -4.060767    0.211760
C      -1.598926   -4.901005    0.330818
C      -0.645133   -5.620801    0.472231
H       0.645175    1.963935   -0.265406
H       0.731510   -0.357909   -0.478886
H       0.259164    0.159028    1.150478
H      -2.148997    0.014590    0.496267
H      -1.680863   -0.473338   -1.128247
H      -0.571264   -2.536063   -0.179363
H      -1.063670   -2.040619    1.441855
H      -3.973637   -3.088116   -1.408734
H      -2.183398   -3.280053   -1.775175
H      -3.640070   -4.440912    0.724959
H       0.197094   -6.257438    0.585834
