15

O      -0.093682    1.233950    0.089789
C       0.058415   -0.086301    0.035357
N       1.171298   -0.752490   -0.098662
C       0.711532   -2.057921   -0.027972
C      -0.615277   -2.103003    0.174895
C      -1.182732   -3.457326   -0.063082
C       0.169002   -4.258445    0.035518
N       1.269301   -3.305012   -0.321018
O      -1.079790   -0.789872    0.167794
H       0.788232    1.616444   -0.004142
H      -1.909319   -3.822286    0.669406
H      -1.635452   -3.560867   -1.059996
H       0.289136   -4.611330    1.067926
H       0.187381   -5.123420   -0.630770
H       2.141097   -3.514377    0.151704
