19

N      -0.196640   -1.230454    0.057114
C      -0.107902   -0.077281    0.058036
C       0.046215    1.385737    0.055934
C      -0.205085    2.028580    1.455260
C       1.334675    2.067096    1.601036
N       1.444204    1.868399    0.139365
C       2.521708    1.116520   -0.416659
C       2.869792    1.355226   -1.863466
C       3.777419    1.869016   -0.774974
H      -0.517795    1.791087   -0.790404
H      -0.654507    3.017422    1.362596
H      -0.763176    1.428551    2.171728
H       1.792035    2.990790    1.966968
H       1.719865    1.219766    2.187812
H       2.648580    0.096756   -0.044546
H       3.190909    0.505212   -2.454063
H       2.273167    2.085014   -2.398207
H       3.778924    2.937025   -0.591106
H       4.728616    1.375331   -0.612466
