19

C      -0.114074    1.644629   -0.029268
C       0.021871    0.115333   -0.039338
O       0.743601   -0.323914    1.109334
C      -1.359615   -0.561320   -0.018223
O      -1.936947   -0.278418    1.255849
C       0.787861   -0.351498   -1.269261
C       2.267120   -0.402571   -1.266190
N       1.474235   -1.649827   -1.257958
H       0.873389    2.101014    0.071751
H      -0.571726    2.006293   -0.956476
H      -0.739547    1.965533    0.808122
H       0.094286   -0.356526    1.824038
H      -1.987446   -0.175275   -0.833929
H      -1.231006   -1.642564   -0.159635
H      -2.673845   -0.877524    1.401321
H       0.279625   -0.127576   -2.205878
H       2.817914   -0.212209   -2.182924
H       2.775544   -0.120834   -0.349725
H       1.457250   -1.986831   -0.295968
