23

C      -0.123367    1.601000    0.097129
C       0.134848    0.114367    0.035712
C       0.589030   -0.471683   -1.298740
C       1.179588   -1.860471   -0.967849
C       1.696647   -1.739741    0.482584
C       0.826307   -0.677120    1.149951
C       1.340290   -0.061856    2.430337
C      -0.659206   -0.828732    0.926917
O      -1.484967   -0.290069    1.924305
H       0.787890    2.169968   -0.121078
H      -0.875278    1.899012   -0.644847
H      -0.487161    1.908400    1.079984
H      -0.219580   -0.528103   -2.037866
H       1.361217    0.182791   -1.724369
H       0.401354   -2.627597   -1.030030
H       1.964689   -2.157909   -1.668107
H       1.677373   -2.698666    1.013873
H       2.737852   -1.391936    0.491418
H       2.287311    0.463521    2.259712
H       0.624171    0.641009    2.858316
H       1.525985   -0.837602    3.182700
H      -1.036205   -1.762591    0.505992
H      -2.273155    0.062834    1.498337
