19

O       0.127336    1.471111   -0.147904
C       0.072440    0.070253   -0.015092
C       0.228737   -0.527670    1.458715
C      -1.306517   -0.670465    1.468430
C      -2.626067   -1.475766    1.446785
C      -2.776033   -0.224708    0.419959
O      -3.853298    0.056030   -0.400105
C      -2.156898    0.648217    1.523725
C      -1.357105   -0.595671   -0.073331
H       1.037755    1.747985   -0.000151
H       0.747807   -0.408749   -0.736620
H       0.764268   -1.481080    1.434479
H       0.674836    0.122652    2.217326
H      -2.588893   -2.469055    0.993262
H      -3.274788   -1.452052    2.328903
H      -4.543994    0.464713    0.133201
H      -2.746397    0.781452    2.436737
H      -1.667535    1.566190    1.207621
H      -1.292884   -1.553784   -0.596288
