14

C       0.048929    1.432445   -0.107467
N       0.009864   -0.015749   -0.094689
C      -1.097920   -0.625097    0.051969
C      -1.143871   -2.088140    0.065651
C      -2.305065   -2.720469    0.219252
O      -3.496648   -2.034731    0.369853
C      -3.378475   -0.697391    0.347596
F      -4.569670   -0.173748    0.498893
N      -2.355079    0.019456    0.211324
H       0.722619    1.773373    0.688163
H       0.495608    1.764157   -1.052766
H      -0.925931    1.915101    0.017041
H      -0.221865   -2.641134   -0.050758
H      -2.468903   -3.787805    0.246070
