14

N      -0.198958    1.266205    0.078694
C       0.006147   -0.084797    0.121754
O       1.007448   -0.630029    0.517642
O      -1.105801   -0.726461   -0.333201
C      -1.063001   -2.137061   -0.249246
C      -1.814759   -2.799166    0.864850
C      -2.349766   -2.827942   -0.555547
H       0.621605    1.839909    0.170627
H      -0.962757    1.621301   -0.471127
H      -0.119483   -2.555990   -0.575812
H      -1.402135   -3.704972    1.294162
H      -2.321428   -2.148924    1.568637
H      -3.204068   -2.197531   -0.774183
H      -2.314096   -3.755274   -1.115752
