15

N       0.075852   -1.144448    0.018669
C      -0.019253    0.011572    0.000914
C      -0.071863    1.419289   -0.034209
C      -1.131730    2.237338   -0.009456
C      -0.550984    3.674475    0.023562
N       0.677251    3.518110   -0.807495
C       1.181635    2.368398   -0.014233
C       1.193457    3.038536    1.372745
C       0.132261    3.837887    1.398200
H      -2.177641    1.970885    0.050502
H      -1.219563    4.473132   -0.292733
H       0.407297    3.184647   -1.733694
H       2.112561    1.931387   -0.369100
H       1.918199    2.830642    2.145693
H      -0.246175    4.455877    2.198796
