17

O      -0.018409    0.489981   -0.982218
C      -0.021462    1.441225   -0.248962
C      -1.279615    2.120390    0.325219
C      -0.787682    3.342561    1.069344
C       0.727969    3.363361    1.048671
C       1.232773    2.154869    0.290949
C      -0.055223    4.412923    0.265808
C      -0.074801    4.415523   -1.166931
C      -0.091031    4.402377   -2.370315
H      -1.978942    2.335266   -0.488125
H      -1.774697    1.414241    1.002024
H      -1.332759    3.679910    1.942811
H       1.287202    3.715864    1.907075
H       1.765319    1.462824    0.953735
H       1.903499    2.388549   -0.541085
H      -0.062576    5.399803    0.719717
H      -0.105405    4.395056   -3.432096
