16

C      -0.015858   -1.192436   -0.032144
C      -0.035501    0.009064   -0.031250
C      -0.016750    1.455472    0.017022
C      -0.239984    2.190009    1.386525
C       0.628468    3.312549    0.773175
C       1.355038    2.216925   -0.040580
O      -0.181426    4.107792   -0.117034
C      -0.914965    3.333034   -0.951467
N      -0.919158    2.065232   -0.980045
H      -0.010330   -2.254187   -0.045772
H      -1.270071    2.422483    1.660766
H       0.279141    1.687398    2.203474
H       1.177507    4.012316    1.400024
H       2.118828    1.718440    0.557457
H       1.737130    2.473237   -1.029843
H      -1.525806    3.930316   -1.622904
