21

C      -0.258948    1.427238    0.025014
C       0.006419   -0.069389   -0.057471
C       0.879752   -0.497650   -1.232852
C       2.109245   -0.376035   -0.300333
C       2.596488   -1.696173   -0.875302
N       1.182662   -2.005536   -1.292886
C       0.556622   -2.698528   -0.150739
C       0.883375   -1.932859    1.170512
N       1.120353   -0.509095    0.869410
H       0.648407    2.008681   -0.164965
H      -1.014809    1.726093   -0.709322
H      -0.621391    1.688986    1.023401
H      -0.930741   -0.614776    0.101436
H       0.773926   -0.062382   -2.230236
H       2.767701    0.488061   -0.190112
H       3.228636   -1.540088   -1.756580
H       3.070736   -2.441397   -0.228754
H      -0.521055   -2.764040   -0.325728
H       0.935777   -3.725948   -0.122491
H       0.060384   -2.004547    1.890152
H       1.771563   -2.339932    1.663084
