20

C      -0.025698    1.618125   -0.132417
C       0.009376    0.088349   -0.055335
C      -1.429939   -0.414687   -0.343773
C      -2.341719   -0.147247    0.768016
N      -3.043603    0.068421    1.660949
C       1.187002   -0.702810   -0.739907
C       2.127809   -0.162959    0.378308
C       0.819546   -0.602493    1.104814
C       0.902875   -1.889616    0.231824
H       0.910796    2.098946    0.146503
H      -0.273632    1.942059   -1.150081
H      -0.802974    2.009680    0.532428
H      -1.816994    0.098765   -1.232012
H      -1.473535   -1.482014   -0.565844
H       1.399785   -0.759513   -1.809611
H       3.006406   -0.777183    0.587233
H       2.393421    0.892058    0.370178
H       0.602459   -0.541535    2.172118
H       0.002303   -2.486362    0.093069
H       1.755297   -2.541378    0.435214
