13

O       0.102446    1.353990    0.125726
C       0.068440    0.003747    0.024003
C       0.073626   -0.684625   -1.182437
C       0.035665   -2.083456   -1.148768
C      -0.005794   -2.729436    0.092747
N      -0.010587   -2.064946    1.247123
C       0.025480   -0.736920    1.213985
C       0.039125   -2.840618   -2.360681
N       0.041879   -3.455172   -3.341663
H       0.130234    1.750129   -0.752186
H       0.106156   -0.160239   -2.132218
H      -0.035667   -3.813089    0.142348
H       0.021108   -0.207114    2.162916
