14

C      -0.093038    1.347631    0.356791
N      -0.074107   -0.087817    0.142942
C      -1.090087   -0.663321   -0.327744
N      -2.276365   -0.034658   -0.794750
C      -3.393294   -0.422290   -0.326001
N      -3.629065   -1.334303    0.742520
N      -2.984792   -2.406452    0.851016
C      -1.981282   -2.780042   -0.089753
N      -1.063923   -2.057471   -0.592742
H       0.877686    1.755632    0.059400
H      -0.889955    1.870383   -0.185784
H      -0.210329    1.553991    1.427493
H      -4.316175    0.049390   -0.663313
H      -1.981997   -3.854632   -0.269708
