20

C      -0.199266    1.527771    0.088104
C       0.075412    0.054062   -0.000392
C       0.113700   -0.707332   -1.168093
C      -0.065885   -0.339216   -2.603281
N       0.311235   -1.998096   -0.741739
C       0.737287   -3.385443   -0.985836
C       0.832500   -3.534799    0.582108
C       0.442104   -2.065649    0.612380
C       0.302693   -0.803827    1.133565
H       0.475869    2.014151    0.801069
H      -0.066646    2.025777   -0.877117
H      -1.222884    1.739972    0.422923
H       0.742931   -0.734288   -3.230773
H      -1.009628   -0.716607   -3.018408
H      -0.070273    0.746765   -2.721687
H      -0.011964   -4.004792   -1.488081
H       1.694001   -3.470610   -1.510538
H       0.117662   -4.239772    1.015886
H       1.833468   -3.776151    0.949974
H       0.347078   -0.491286    2.165626
