14

C      -0.013328    1.488253    0.071051
C      -0.017458   -0.003369   -0.040396
N      -0.168427   -0.619714   -1.149453
C      -0.164789   -2.027220   -1.202767
O      -0.305675   -2.633449   -2.238843
C       0.023945   -2.702426    0.102073
O       0.029693   -4.052137    0.066918
C       0.173662   -1.955975    1.209946
O       0.157253   -0.590432    1.170242
H       0.934443    1.834465    0.495365
H      -0.156294    1.922948   -0.916564
H      -0.811396    1.821055    0.742242
H       0.157225   -4.405327    0.955456
H       0.317865   -2.331458    2.215792
