18

C       0.116124    1.435758   -0.362282
C       1.397613    1.997607    0.305842
C       2.139744    0.748945    0.722977
C       3.463327    0.571037    1.099596
C       3.868429   -0.718457    1.447141
N       3.064234   -1.785333    1.442317
C       1.788722   -1.596286    1.082266
C       1.283747   -0.355806    0.715219
C      -0.111126    0.049186    0.294505
H      -0.743584    2.101762   -0.258050
H       0.298514    1.301657   -1.433706
H       1.979189    2.643946   -0.358332
H       1.150046    2.598138    1.191870
H       4.171469    1.393230    1.119993
H       4.899503   -0.902256    1.741004
H       1.154548   -2.481087    1.083477
H      -0.764913    0.134016    1.173226
H      -0.586353   -0.667457   -0.381969
