18

C      -0.241804    1.444423    0.056957
C      -0.051840   -0.057474   -0.020377
C      -1.253779   -0.830010   -0.505223
O      -1.557738   -0.486746   -1.868875
C      -2.789454   -0.032518   -2.158154
O      -3.130222    0.259320   -3.264942
C       1.308192   -0.602227   -0.384256
C       0.796223   -0.742161    1.027761
H       0.663993    1.935146    0.424235
H      -0.471438    1.863132   -0.928142
H      -1.061104    1.707762    0.737097
H      -1.060006   -1.907311   -0.480940
H      -2.130614   -0.626333    0.125459
H      -3.441592    0.039315   -1.264696
H       1.356014   -1.491858   -1.002849
H       2.102456    0.111332   -0.573501
H       1.235466   -0.120139    1.799911
H       0.503129   -1.729091    1.371227
