18

C       0.243679    1.561954    0.766832
N       0.336188    0.180079    1.191586
C       0.307893   -0.707430    0.286145
N       0.403878   -2.046090    0.592379
C       0.463702   -2.569030    1.948814
C       0.743799   -4.069593    1.707910
N       0.274759   -4.249838    0.339971
C       0.265648   -3.060818   -0.361947
O       0.145673   -2.908916   -1.556281
H       1.131561    2.112372    1.100331
H       0.148667    1.687494   -0.323563
H      -0.620483    2.038442    1.244754
H       0.214198   -0.531459   -0.791029
H       1.245282   -2.071030    2.525044
H      -0.489526   -2.405092    2.464675
H       1.815096   -4.291791    1.806150
H       0.196974   -4.704215    2.409888
H       0.482237   -5.085497   -0.182610
