18

C      -0.065942    1.395759   -0.007011
N      -0.007397   -0.031399    0.217281
C      -1.133921   -0.874517   -0.136869
C      -0.592258   -2.278021    0.166757
N       0.847141   -2.091985   -0.019082
C       1.728858   -3.124023   -0.182578
O       2.931321   -3.021691   -0.290637
C       1.192259   -0.708834    0.044860
N       2.331063   -0.160207   -0.029300
H       0.889434    1.827038    0.292482
H      -0.241753    1.641444   -1.065804
H      -0.871274    1.833605    0.591079
H      -2.017563   -0.633994    0.461574
H      -1.405065   -0.772039   -1.201306
H      -0.816670   -2.568605    1.199819
H      -0.986322   -3.041913   -0.507251
H       1.206635   -4.100630   -0.214373
H       3.059210   -0.866251   -0.103059
