18

O       0.043283   -0.036851   -0.168538
C      -0.031588    1.159087   -0.008609
C      -1.334902    1.909602    0.179241
C      -1.105745    3.195006    0.990869
C       0.285071    3.764426    0.768303
C       1.088522    3.506653   -0.536113
C       2.324392    3.745513    0.347429
N       1.449803    2.871853    1.263325
C       1.196282    2.040106   -0.033272
H      -1.681928    2.167341   -0.831438
H      -2.087513    1.247063    0.611672
H      -1.857611    3.950303    0.739780
H      -1.209951    2.992064    2.063213
H       0.367941    4.775240    1.179972
H       0.888058    3.857545   -1.554828
H       3.263045    3.265201    0.060587
H       2.491243    4.751868    0.741679
H       2.069228    1.456419   -0.333828
