16

O      -1.115870    1.199277   -0.404621
C      -0.050375    0.863607    0.039721
C       1.183586    1.760318    0.052011
C       1.193422    2.719751   -1.145986
C       1.396559    2.025403   -2.415945
N       1.559935    1.478772   -3.420069
C       1.430722    2.422637    1.439911
C       2.735607    1.602897    1.433650
O       2.389367    0.987052    0.170257
H       0.121013   -0.126487    0.515406
H       0.231269    3.241816   -1.176067
H       1.986812    3.462484   -1.018132
H       1.532597    3.508419    1.416904
H       0.712113    2.147661    2.213718
H       3.662136    2.182960    1.361357
H       2.838723    0.860205    2.231137
