18

N      -0.047493    1.062664    0.050158
H       0.409943    0.149965    0.130194
H       0.674274    1.756693   -0.159189
H      -0.707891    1.028404   -0.729954
C      -0.721060    1.404296    1.371047
C      -1.443378    0.383848    2.152862
C      -0.750155   -0.981803    2.137323
C       0.578304   -0.324378    2.621090
C      -0.087424    1.050773    2.655517
C       0.112491    2.187262    3.700611
O       0.885356    1.886705    4.619360
O      -0.545514    3.212990    3.430561
H      -1.098111    2.423204    1.375673
H      -2.453857    0.576237    2.493543
H      -1.171948   -1.659369    2.880686
H      -0.741748   -1.525060    1.179751
H       0.864926   -0.610912    3.632649
H       1.469486   -0.439884    1.984241
