19

O      -0.718258    1.132657    0.926542
C      -0.097644    0.156681    0.098333
C       0.852966   -0.759916    0.880303
O       0.048535   -1.789445    1.449207
C      -1.271309   -1.734430    0.926804
C      -1.969718   -3.102587    0.801631
O      -3.072969   -2.659643    1.615214
C      -2.387229   -1.435571    1.958962
C      -1.185955   -0.835777   -0.308169
H      -0.030377    1.671780    1.329555
H       0.400930    0.626927   -0.760059
H       1.610150   -1.199350    0.214350
H       1.376082   -0.222355    1.681460
H      -2.289711   -3.409325   -0.202004
H      -1.398631   -3.914069    1.270849
H      -2.015292   -1.442393    2.991079
H      -3.006564   -0.549004    1.791117
H      -2.126575   -0.340757   -0.553901
H      -0.856412   -1.417659   -1.175909
