14

O      -0.017020    0.340951   -0.997108
C      -0.019560    1.302256   -0.291309
C      -1.137060    2.145807    0.338341
C      -0.027953    3.162515    0.841548
C       1.092874    2.176119    0.305087
C      -0.055635    4.445141    0.154641
C      -0.078720    5.484811   -0.445439
C      -0.008643    3.335459    2.294061
N       0.007138    3.437605    3.444921
H      -1.868389    2.567076   -0.353132
H      -1.657175    1.633258    1.151687
H       1.650680    1.678187    1.102383
H       1.791604    2.616810   -0.407660
H      -0.099053    6.412637   -0.962936
