18

C       0.140160    1.478888   -0.139356
C      -0.030772   -0.017533   -0.073424
C      -0.455203   -0.776096   -1.364321
N      -0.468093   -2.218247   -0.947015
C      -0.429499   -2.087307    0.312578
O       0.723122   -2.345883    1.051742
C       0.690552   -0.833227    1.174252
C       1.707481   -0.296391    2.126293
C      -0.759456   -0.735158    1.016581
H       0.993271    1.751605   -0.770546
H      -0.753858    1.940718   -0.575969
H       0.290600    1.930503    0.844839
H      -1.409930   -0.381053   -1.748044
H       0.284878   -0.712830   -2.169577
H       2.718640   -0.518492    1.772626
H       1.608549    0.786451    2.227710
H       1.578149   -0.754483    3.111737
H      -1.575942   -0.469302    1.677158
