18

C      -0.064401    1.804330    0.228595
C      -0.097156    0.303407    0.051463
N       0.881131   -0.268983   -0.871910
C       1.008935   -0.565069    0.581614
C       2.145871   -0.039131    1.283201
C       3.084280    0.388544    1.901764
C      -1.477373   -0.297929    0.068614
C      -2.228812   -0.539632   -1.170661
O      -1.601513   -1.617483   -0.461053
H       0.966196    2.160203    0.263996
H      -0.575492    2.299021   -0.604046
H      -0.563242    2.098213    1.158776
H       0.472356   -1.096716   -1.306932
H       0.704468   -1.562495    0.891343
H       3.920320    0.763962    2.438009
H      -2.045928   -0.125142    0.983592
H      -3.316698   -0.546773   -1.153826
H      -1.774968   -0.290456   -2.128201
