17

C       0.125177    1.415818    0.379799
C      -0.020387   -0.036836   -0.026140
C       0.556244   -0.513955   -1.307918
N       1.190429   -0.903286   -0.038699
C      -1.233839   -0.723539    0.475228
N      -1.924959   -1.665861   -0.085305
C      -2.925508   -1.960800    0.830363
C      -2.788104   -1.157954    1.909960
O      -1.704038   -0.354030    1.697349
H       1.030784    1.842314   -0.062080
H      -0.729384    2.010171    0.040441
H       0.189743    1.516044    1.467339
H       0.064646   -1.323892   -1.835915
H       1.044613    0.226307   -1.936748
H       2.007915   -0.320720    0.133561
H      -3.666466   -2.720541    0.639177
H      -3.317788   -1.019880    2.836488
