21

C      -0.257409    1.528953    0.036258
O      -0.220915    0.114395   -0.018042
C       0.633541   -0.491360   -0.979114
C       0.185349   -0.202129   -2.421598
O       0.516455    1.129641   -2.795777
C       2.146841   -0.158625   -0.788092
C       2.823374   -1.500871   -0.912364
C       1.953854   -2.509307   -0.889067
C       0.534004   -2.025832   -0.747617
H       0.741704    1.964431    0.175525
H      -0.696911    1.971833   -0.863223
H      -0.871347    1.783105    0.904826
H       0.683224   -0.925583   -3.084626
H      -0.900190   -0.374152   -2.476865
H       0.275340    1.250445   -3.718572
H       2.500149    0.578407   -1.514262
H       2.311518    0.268242    0.210062
H       3.901241   -1.603954   -0.978676
H       2.210268   -3.562027   -0.934169
H       0.137533   -2.206013    0.258661
H      -0.160765   -2.506247   -1.448113
