18

N      -0.073154    1.279360    0.306992
C       0.004855    0.058742   -0.019349
O       1.201213   -0.518186   -0.341589
C       1.288457   -1.843982   -0.895998
C      -0.017866   -2.630260   -0.825980
C      -1.171030   -1.731636   -1.275955
C      -1.213010   -0.835425   -0.025490
C      -1.109511   -1.901304    1.084840
O      -0.324265   -2.963868    0.527734
H       0.851780    1.713491    0.265503
H       1.613882   -1.746241   -1.940027
H       2.067293   -2.366511   -0.333335
H       0.090082   -3.561519   -1.389530
H      -0.966562   -1.185327   -2.199888
H      -2.096973   -2.300382   -1.393929
H      -2.097330   -0.208502    0.073036
H      -0.628685   -1.522653    1.992516
H      -2.103574   -2.283734    1.350221
