22

C      -0.009042    1.606823   -0.006687
C       0.001476    0.077064    0.044932
C      -1.402860   -0.528634   -0.060109
O      -2.074599   -0.134698   -1.245128
C      -1.407549   -2.079022    0.089701
C      -2.842153   -2.641619    0.207767
C      -2.904533   -4.160669    0.372421
C      -0.702868   -2.670115   -1.052957
N      -0.163920   -3.091410   -1.985804
H       1.008234    2.006991    0.025230
H      -0.490387    1.959950   -0.922124
H      -0.561474    2.026599    0.841222
H       0.621953   -0.323755   -0.767817
H       0.463061   -0.265125    0.979939
H      -2.023135   -0.137021    0.755649
H      -1.543523   -0.424264   -1.998046
H      -0.845145   -2.339405    0.996016
H      -3.307688   -2.152056    1.071167
H      -3.405420   -2.323184   -0.674074
H      -2.465076   -4.673750   -0.488471
H      -2.365786   -4.488721    1.268389
H      -3.941818   -4.494431    0.467331
