18

O       0.497887   -0.207731   -0.815940
C      -0.087252   -0.619985    0.388379
C      -0.138868    0.347369    1.605654
C      -1.530884   -0.227680    1.948669
C      -1.630179   -0.777968    0.495450
O      -1.371638   -1.231538    2.948797
C      -2.562485   -1.721997    3.500016
C      -3.306175   -2.652485    2.623524
N      -3.892965   -3.384367    1.949000
H       0.057130    0.598098   -1.106209
H       0.416323   -1.551299    0.658618
H       0.627283    0.261164    2.378342
H      -0.213522    1.390338    1.281086
H      -2.306030    0.481003    2.266493
H      -2.143554   -0.056500   -0.150409
H      -2.068675   -1.764458    0.344731
H      -2.291168   -2.262386    4.412554
H      -3.245231   -0.906039    3.784251
