17

O      -0.078014    1.327699   -0.018504
C      -0.048130   -0.037009   -0.023658
C       0.885122   -0.998956   -0.855526
N       1.959970   -0.922055    0.189313
C       0.683660   -1.019394    0.971831
C      -0.064417   -1.950112   -0.049605
C      -1.233267   -0.971350   -0.172016
N      -2.503918   -0.909078    0.522518
C      -2.467551   -0.956599   -0.969170
H       0.829140    1.637714    0.099566
H       1.079569   -0.993401   -1.928366
H       2.476266   -1.804490    0.236297
H       0.640608   -1.038055    2.060951
H      -0.058261   -3.038642   -0.063901
H      -2.755963   -1.823800    0.890625
H      -2.800225   -0.042897   -1.453604
H      -2.775159   -1.873616   -1.466130
