15

C       0.088652    1.466230    0.091751
C      -0.005751   -0.030955    0.048399
N      -0.128904   -0.544498   -1.128798
O      -0.222250   -1.942518   -1.235955
C      -0.181935   -2.704434   -0.126738
C      -0.055813   -2.233538    1.121724
C       0.044436   -0.803744    1.292575
N       0.170872   -0.138995    2.394196
O       0.204381   -1.003965    3.496532
H       1.026116    1.767948    0.568096
H       0.034324    1.872147   -0.918607
H      -0.720487    1.874124    0.704688
H      -0.266135   -3.753225   -0.388653
H      -0.030038   -2.899708    1.970245
H       0.299172   -0.391688    4.233795
