17

C       0.092502    1.517257   -0.008697
O       1.226228    0.633915   -0.009916
C      -0.077361    0.068416    0.026118
C      -0.498114   -0.797023    1.223469
C      -1.153029   -1.978410    0.469472
C      -2.463022   -1.499321   -0.183346
O      -1.969364   -0.655104   -1.238861
C      -0.548742   -0.777414   -1.156486
O      -0.321285   -2.094635   -0.702437
H      -0.044067    2.098822    0.901901
H      -0.076219    2.063600   -0.936023
H       0.388113   -1.125305    1.771311
H      -1.179097   -0.292465    1.912890
H      -1.198239   -2.928277    0.998364
H      -3.038493   -2.326911   -0.612270
H      -3.101308   -0.923845    0.495457
H      -0.085288   -0.588398   -2.123356
