22

C      -0.326671    1.585688    0.078641
C      -0.014138    0.093181    0.096596
C       0.461104   -0.582618   -1.190884
C       1.810077   -0.138429   -1.585350
N       1.700693   -1.170193   -0.535654
C       1.299204   -0.464450    0.745192
C       2.327070    0.460559    1.378764
C       3.587880   -0.285377    1.802089
O       4.471014    0.658203    2.392505
H       0.492493    2.178203   -0.338350
H      -1.218355    1.782619   -0.526735
H      -0.525150    1.958396    1.089262
H      -0.873669   -0.442847    0.509540
H      -0.163884   -1.179656   -1.848297
H       2.215570   -0.536390   -2.510668
H       2.162245    0.859453   -1.340180
H       1.053725   -1.254007    1.462776
H       2.616299    1.274371    0.706082
H       1.884314    0.935246    2.263223
H       3.323810   -1.084672    2.514068
H       4.042067   -0.769050    0.924847
H       5.288858    0.203701    2.613872
