10

C      -0.047557    1.380708    0.010566
C       1.188626    2.026435    0.001833
N       2.359358    1.388656   -0.013324
N       2.377421    0.056934   -0.020831
C       1.224420   -0.612492   -0.013038
C      -0.028820   -0.000670    0.002780
H      -0.972170    1.946971    0.022860
H       1.258016    3.110479    0.007114
H       1.323186   -1.694246   -0.019966
H      -0.937733   -0.591904    0.008552
