19

C       0.336701    1.566874   -0.191017
C       0.099143    0.081893   -0.014691
C       0.842742   -0.938834   -0.929392
C       1.180023   -1.738494    0.348553
C       2.598989   -1.564632    0.961402
O       3.709737   -1.338452    0.133834
C       2.023293   -0.267704    1.556104
N       2.477340    0.788391    2.075783
N       0.682125   -0.597326    1.215448
H       1.401162    1.807856   -0.218156
H      -0.121384    1.895095   -1.130658
H      -0.114497    2.134004    0.628240
H      -0.976806   -0.120878   -0.002002
H       0.240841   -1.451570   -1.682192
H       1.736818   -0.522786   -1.402845
H       0.686217   -2.704434    0.477671
H       2.805408   -2.327389    1.725347
H       4.088818   -2.187767   -0.113395
H       3.492313    0.719557    2.167767
