21

C       0.064305    1.413507    0.009631
O      -0.045704    0.003009   -0.039903
C       0.632843   -0.573163   -1.112424
O       2.054927   -0.401439   -1.003826
C       2.619030   -1.724757   -0.932375
C       2.274120   -2.332763    0.440414
C       0.748428   -2.635101    0.287810
C       0.442858   -2.100043   -1.132357
C       1.717857   -2.508457   -1.898686
H       1.103390    1.728105    0.160146
H      -0.314058    1.875953   -0.914920
H      -0.544554    1.752889    0.850476
H       0.309476   -0.085560   -2.047940
H       3.681251   -1.650731   -1.167438
H       2.859596   -3.236677    0.635413
H       2.482736   -1.613501    1.235197
H       0.545227   -3.708823    0.333788
H       0.143263   -2.140296    1.046456
H      -0.515268   -2.410478   -1.549328
H       1.769907   -2.127645   -2.921856
H       1.892979   -3.587795   -1.896535
