21

C       0.012506    1.578005    0.010434
C       0.000086    0.046957    0.002329
C      -1.413345   -0.544860    0.012625
C      -1.434940   -2.077082    0.004603
C      -2.850684   -2.660862    0.014964
C      -2.868095   -4.183274    0.006949
O      -4.223204   -4.609256    0.017592
H       1.034110    1.970894    0.002805
H      -0.506358    1.982468   -0.865875
H      -0.489517    1.972980    0.900768
H       0.539112   -0.319575   -0.881545
H       0.555827   -0.328992    0.871779
H      -1.953845   -0.178799    0.896713
H      -1.970565   -0.169380   -0.857014
H      -0.893714   -2.441503   -0.879939
H      -0.876987   -2.450924    0.874701
H      -3.396387   -2.312648    0.900732
H      -3.413144   -2.303203   -0.856442
H      -2.340724   -4.556321   -0.886869
H      -2.323803   -4.565850    0.886481
H      -4.235882   -5.570647    0.012486
