13

O       0.046663    0.005531    0.035923
C      -0.024662    1.194720   -0.028016
N      -1.145541    1.995405   -0.085649
C      -0.839651    3.383109    0.007866
C      -0.058897    3.853096    1.214221
C       0.678276    3.370643   -0.021307
O       1.089070    2.023543   -0.042796
C       1.475260    4.256519   -0.820971
N       2.101471    4.998404   -1.447983
H      -2.043762    1.597744    0.132495
H      -1.424139    4.072184   -0.589115
H      -0.031440    4.921096    1.396895
H      -0.011628    3.216547    2.090859
