18

C       0.001876    1.548833   -0.000353
C       1.456792    2.056278    0.042303
N       2.211565    1.594568    1.218351
C       1.873917    0.294240    1.563158
C       0.918483   -0.510934    1.020431
C      -0.052385    0.006457   -0.000452
C       1.078462   -1.780009    1.678544
C       2.093924   -1.629684    2.565154
O       2.606112   -0.356272    2.499960
H      -0.534473    1.933214    0.875971
H      -0.497766    1.951849   -0.887467
H       1.985463    1.707425   -0.854366
H       1.488886    3.148847    0.029254
H       2.171557    2.240590    1.998662
H      -1.073012   -0.330170    0.216645
H       0.184780   -0.375407   -1.003519
H       0.499197   -2.677449    1.521030
H       2.559128   -2.277339    3.288374
