23

C      -0.456700    1.518775    0.269658
C      -0.054427    0.064564    0.053000
C      -1.243592   -0.769077   -0.422921
O      -1.682262   -0.256065   -1.674811
C       1.205615   -0.183773   -0.839785
C       1.770916   -1.162174    0.229488
C       0.698510   -0.654167    1.201269
C       0.972462   -0.096991    2.567851
C       0.139786   -1.348853    2.410204
H       0.400376    2.120966    0.585630
H      -0.859521    1.943101   -0.654113
H      -1.232654    1.607372    1.040498
H      -0.943636   -1.824801   -0.513204
H      -2.049730   -0.721280    0.327544
H      -2.428704   -0.783855   -1.971932
H       1.005827   -0.588273   -1.833696
H       1.815377    0.716966   -0.945994
H       1.644823   -2.215169   -0.042139
H       2.811214   -1.009316    0.529897
H       1.979068   -0.196465    2.962609
H       0.465736    0.814497    2.868508
H      -0.924987   -1.275005    2.609107
H       0.578254   -2.299499    2.698405
