16

C       0.042265    1.436913    0.284032
C      -0.097306   -0.019725   -0.070397
N      -1.253750   -0.567248    0.020522
C      -1.525307   -1.917348   -0.226464
N      -2.553087   -2.335741   -0.855760
C      -0.635521   -2.911181    0.411171
C       0.706861   -2.834974    0.376879
C       1.445137   -1.782812   -0.302186
N       1.103859   -0.565469   -0.536427
H       0.353454    2.003334   -0.599670
H      -0.901064    1.827442    0.664288
H       0.830131    1.567432    1.033558
H      -3.079185   -1.534461   -1.214714
H      -1.125155   -3.777064    0.847504
H       1.298848   -3.655210    0.774151
H       2.439316   -2.067745   -0.658363
