16

C      -0.235640    1.385812    0.131836
N       0.021396   -0.033155   -0.010357
C       0.035354   -0.723558   -1.193284
C       0.238369   -2.059740   -0.924942
C       0.338721   -2.164333    0.486060
O       0.608628   -3.303348    1.221380
C      -0.272264   -4.331136    1.121558
O      -0.094215   -5.376592    1.666296
C       0.199104   -0.909448    1.031742
H       0.423944    1.811788    0.892314
H      -0.033806    1.883744   -0.818453
H      -1.275101    1.581489    0.417629
H      -0.095510   -0.206972   -2.130759
H       0.337522   -2.856062   -1.645258
H      -1.143333   -4.073913    0.492130
H       0.224918   -0.580144    2.056917
