25

C      -0.291195    1.753776    0.329630
C      -0.001156    0.305020   -0.079531
C       0.707717   -0.538418    0.988777
C       2.078404    0.028650    1.404740
C       3.089051    0.197796    0.264949
C      -0.158760   -0.888067    2.245235
C       0.310772   -2.361420    2.127118
O      -0.597092   -3.406371    2.375625
C       0.773921   -2.071043    0.676241
H       0.627499    2.331042    0.473493
H      -0.881070    2.263983   -0.438188
H      -0.858443    1.796004    1.266043
H      -0.949478   -0.189841   -0.326547
H       0.587094    0.295585   -1.006189
H       1.927688    0.994895    1.902285
H       2.512459   -0.629084    2.168360
H       4.061137    0.514963    0.655087
H       3.242456   -0.739744   -0.280298
H       2.765702    0.951798   -0.459182
H       0.051545   -0.358749    3.178908
H      -1.230843   -0.802695    2.031261
H       1.160856   -2.562679    2.784255
H      -1.365629   -3.269893    1.811535
H       0.003794   -2.365208   -0.046377
H       1.728655   -2.493870    0.351989
