21

C       0.721232    1.347884   -0.272843
O       0.844101   -0.053553   -0.280377
C      -0.226899   -0.698028   -0.933160
C       0.021252   -2.206516   -0.857285
O      -1.106940   -2.885862   -1.413710
C      -0.682729   -3.778914   -2.437725
C       0.806435   -3.575667   -2.570139
C       1.620669   -4.312999   -3.582723
C       1.195762   -2.684063   -1.662477
H       0.703059    1.762605   -1.293276
H      -0.194936    1.674186    0.244443
H       1.588098    1.751115    0.256690
H      -1.188143   -0.461771   -0.448274
H      -0.296987   -0.386914   -1.988508
H       0.125848   -2.471298    0.207853
H      -0.933191   -4.817736   -2.163931
H      -1.221250   -3.556812   -3.372964
H       1.540739   -5.398421   -3.441987
H       1.271027   -4.104343   -4.601783
H       2.677107   -4.039977   -3.523370
H       2.201462   -2.322266   -1.493778
