18

C      -0.058321    1.529483    0.022265
C       0.006352    0.020156   -0.013784
C      -0.124552   -0.676033   -1.310195
C      -0.810352   -1.813934   -1.160302
C      -1.043167   -2.065901    0.324412
C       0.166689   -2.904809    0.721884
C       1.151729   -2.091744    1.120488
C       0.659884   -0.706643    1.191657
N      -0.800349   -0.726189    0.971071
H       0.784808    1.967161   -0.523254
H      -0.985408    1.886370   -0.438745
H      -0.028775    1.897735    1.050961
H       0.283029   -0.286790   -2.235055
H      -1.018130   -2.550543   -1.927488
H      -2.019013   -2.478309    0.592416
H       0.241232   -3.968246    0.528665
H       2.167251   -2.378503    1.361956
H       1.021084   -0.055165    1.985178
