15

C       0.007782    1.392726    0.053135
O       0.018465   -0.033000    0.026146
C       0.632739   -0.630899    1.051796
N       1.205544    0.026645    2.047310
N       1.694252   -0.958424    2.846941
C       1.443922   -2.196687    2.381237
C       0.742790   -2.049398    1.193337
C       0.255183   -3.052759    0.331542
C      -0.163476   -3.906187   -0.408026
H       1.027461    1.791220    0.045663
H      -0.526298    1.703635   -0.845366
H      -0.505144    1.762689    0.946794
H       2.182629   -0.700772    3.686171
H       1.765149   -3.086133    2.898988
H      -0.535253   -4.652800   -1.064174
