16

O       0.087698    1.401968   -0.072088
C       0.069791    0.036881   -0.035110
C       0.038495   -0.773809   -1.154230
C       0.011843   -0.804732   -2.597228
C      -0.013071   -2.084709   -3.014563
C      -0.004317   -3.026742   -1.823371
N       0.028673   -2.087729   -0.709789
C       0.052673   -2.126888    0.647961
C       0.078828   -0.816709    1.103389
H       0.108472    1.727929    0.831868
H       0.012433    0.075554   -3.224326
H      -0.036371   -2.440123   -4.034434
H      -0.897678   -3.664173   -1.785242
H       0.872167   -3.688262   -1.817351
H       0.049940   -3.055304    1.196469
H       0.101807   -0.508156    2.138728
