21

C      -0.054703    1.422994    0.296887
C      -0.085248    0.001230   -0.274092
C      -1.463034   -0.616698   -0.200207
C      -1.623720   -2.082048   -0.061510
N      -1.828445   -1.150516    1.126665
C      -3.305725   -1.462124    1.066813
C      -3.085188   -2.461921   -0.072093
C      -3.926188   -2.933008   -1.193273
N      -3.626064   -3.813484   -0.040815
H       0.953020    1.846457    0.250107
H      -0.722076    2.089249   -0.261203
H      -0.377867    1.420083    1.341803
H       0.247293    0.004910   -1.320091
H       0.614325   -0.635408    0.279362
H      -2.238696   -0.075827   -0.745954
H      -0.786728   -2.774590   -0.110114
H      -3.631551   -1.946407    1.989659
H      -3.930959   -0.585519    0.865513
H      -4.965580   -2.624073   -1.267297
H      -3.442578   -3.130732   -2.147118
H      -2.907971   -4.489237   -0.293307
