19

C       0.125738    1.369401    0.193226
O       0.322563   -0.042275    0.052967
C       0.308261   -0.502217   -1.216764
O       0.144198    0.215518   -2.177003
C       0.506779   -1.974280   -1.238235
C      -0.094927   -2.765552   -2.387760
C       1.388356   -2.638574   -2.293580
C       2.175447   -1.849731   -3.309441
O       2.466070   -2.736966   -4.385102
H       0.912460    1.923252   -0.325413
H      -0.841206    1.667786   -0.219857
H       0.161292    1.568767    1.264369
H       0.514456   -2.429323   -0.255930
H      -0.565883   -3.712401   -2.150972
H      -0.593034   -2.173760   -3.147762
H       1.921918   -3.510050   -1.924281
H       1.595343   -0.981615   -3.641466
H       3.104046   -1.476471   -2.846961
H       2.922985   -2.233379   -5.065082
