17

O      -0.185105    1.608244   -0.259775
C       0.053680    0.239788   -0.074498
C      -0.300629   -0.394770    1.226568
C      -1.186432   -0.630923   -0.003201
C      -2.533210   -0.008201   -0.035514
O      -3.494347   -0.516470   -0.558633
C       1.221672   -0.266795   -0.872122
C       2.550353   -0.453113   -0.267851
O       1.701978   -1.568517   -0.554511
H       0.510529    2.095663    0.196263
H       0.280049   -1.242245    1.570118
H      -0.703339    0.256218    1.995582
H      -1.125467   -1.605038   -0.475394
H      -2.601879    0.975777    0.474491
H       1.163955   -0.044208   -1.938076
H       3.441328   -0.375177   -0.887951
H       2.691931   -0.240790    0.790792
