19

C       0.062529    1.403217   -0.317218
C       0.004747   -0.042275    0.195545
C      -1.405626   -0.589301    0.139255
C      -1.972312   -1.218283   -1.078502
C      -1.721099   -2.117851    0.141156
C      -0.584579   -3.085984    0.039108
O       0.330709   -2.992809   -0.743466
C      -2.835422   -2.560698    0.929643
C      -3.754129   -2.956877    1.597923
H       1.082624    1.794154   -0.259310
H      -0.262978    1.465142   -1.360702
H      -0.582477    2.063927    0.272440
H       0.671600   -0.674923   -0.394518
H       0.365115   -0.077928    1.231120
H      -2.118883   -0.049270    0.756993
H      -3.009265   -1.047070   -1.340927
H      -1.295518   -1.408527   -1.905400
H      -0.646379   -3.928525    0.758683
H      -4.570219   -3.300868    2.183731
