20

C      -0.144921    1.489800   -0.144412
C       0.029856   -0.035908    0.037052
C       0.810685   -0.319898    1.341349
C      -1.355119   -0.718606    0.096583
C       0.792129   -0.566385   -1.098159
C       1.429020   -0.995454   -2.028743
C       2.254632   -1.459908   -3.133755
N       1.678363   -2.455824   -3.871408
O       3.359545   -1.010518   -3.371240
H       0.825184    1.991457   -0.192026
H      -0.690727    1.715419   -1.064751
H      -0.707562    1.901668    0.699989
H       0.256637    0.076399    2.198780
H       0.950977   -1.394346    1.488594
H       1.796314    0.152339    1.317607
H      -1.923810   -0.532305   -0.818919
H      -1.253884   -1.800375    0.222057
H      -1.928920   -0.326835    0.942932
H       0.733492   -2.753161   -3.703431
H       2.165382   -2.783373   -4.689444
