15

N       0.200371    1.142325    0.597335
C       0.042133   -0.105298   -0.115937
C      -1.420935   -0.578659   -0.256596
C      -1.335557   -1.490477   -1.502910
O      -0.309899   -0.912477   -2.322361
C       0.509549   -0.115914   -1.583933
O       1.429148    0.486254   -2.051597
C      -1.966052   -1.250093    0.913967
N      -2.396074   -1.806475    1.830665
H       1.187697    1.315904    0.758801
H      -0.126457    1.917165    0.025515
H       0.615090   -0.879859    0.409201
H      -2.046153    0.293080   -0.484027
H      -1.052732   -2.512063   -1.228450
H      -2.259313   -1.517143   -2.081731
