17

O      -0.510144    0.598957    0.672351
C       0.062727    1.051661   -0.287803
C       1.248592    1.984306   -0.209410
C       1.430408    3.045627   -1.296800
C       0.503684    4.206904   -0.985671
O      -0.629462    3.962643   -0.179751
C      -0.139450    3.638390    1.133714
C       1.274016    3.126616    0.872780
C       1.780676    4.095191   -0.232328
H      -0.248851    0.781958   -1.323839
H       2.151038    1.366911   -0.124317
H       1.872737    2.898731   -2.275493
H       0.347789    4.964746   -1.743590
H      -0.123771    4.537390    1.767561
H      -0.804261    2.891294    1.570241
H       1.884693    2.958871    1.757374
H       2.584187    4.816720   -0.178933
