15

C       0.070676   -3.712116    0.160229
C       0.045184   -2.507069    0.087160
C       0.017045   -1.149578    0.002277
C      -0.005597    0.058424   -0.068242
C      -0.029977    1.520757   -0.177868
O      -0.732345    2.121550    0.914911
C       0.160730    2.913511    1.698679
C       1.458075    2.908859    0.942536
C       1.358027    2.129205   -0.125092
H       0.091863   -4.771505    0.226477
H      -0.555304    1.785797   -1.109115
H      -0.263542    3.921437    1.811732
H       0.267777    2.487121    2.708591
H       2.330735    3.465467    1.259459
H       2.117739    1.901888   -0.860031
