21

C      -0.009187    1.470202    0.148269
C       0.019573   -0.070255    0.082365
C       0.556718   -0.578429   -1.257130
C       0.854456   -0.605648    1.235422
O       1.970197   -1.051540    1.150983
O       0.169854   -0.506323    2.402553
C       0.853800   -0.924863    3.570186
C       1.305545    0.132455    4.531716
C       0.104043   -0.739390    4.846984
H       0.997599    1.882192    0.021822
H      -0.639645    1.869835   -0.651569
H      -0.406356    1.817370    1.105343
H      -1.003785   -0.431127    0.237286
H       1.591199   -0.257158   -1.404234
H       0.541868   -1.670681   -1.303935
H      -0.050153   -0.190017   -2.080523
H       1.471508   -1.799331    3.410847
H       2.232547   -0.027307    5.070549
H       1.108165    1.162507    4.257623
H      -0.873730   -0.276553    4.777290
H       0.191599   -1.504644    5.609764
