18

O      -0.006892   -0.001381    0.043498
C       0.017550    1.191991    0.096429
O      -1.104021    1.934062    0.290458
C      -0.830988    3.341202    0.338410
C       0.667045    3.553659    0.010860
C       1.472489    4.233716    1.134417
C       1.908772    3.040283    2.008027
N       2.177403    1.936742    1.075277
C       1.241827    2.110877   -0.047385
H      -1.492962    3.831276   -0.380486
H      -1.089196    3.700357    1.340677
H       0.770969    4.076985   -0.940569
H       2.353865    4.731137    0.714801
H       0.894116    4.987145    1.677971
H       2.787189    3.242998    2.625120
H       1.096759    2.747016    2.686694
H       3.126452    2.009923    0.728158
H       1.731237    1.854892   -0.989194
