19

O      -0.121405    0.026800    0.589711
C      -0.007536    1.160338    0.169820
N       1.152605    1.737947   -0.234034
C       2.443316    1.073879   -0.200621
C       3.063328    0.866616   -1.612113
C       4.594311    0.932628   -1.417477
C       4.771901    1.813374   -0.192786
N       3.950322    3.047278   -0.233304
C       3.495746    1.873323    0.551818
H      -0.865780    1.855112    0.071233
H       1.139949    2.695310   -0.552151
H       2.275926    0.117257    0.300128
H       2.729533   -0.068605   -2.066674
H       2.736812    1.683010   -2.260453
H       5.009296   -0.058816   -1.201200
H       5.110380    1.320470   -2.301279
H       5.728319    1.847907    0.318858
H       4.354271    3.731874    0.400877
H       3.446414    1.944893    1.633203
