23

C      -0.166049    1.410454    0.135910
C      -0.053459   -0.104057    0.102001
O       0.662222   -0.530777    1.245617
C       0.839725   -1.933070    1.325441
C       1.727546   -2.200063    2.534454
O       2.941846   -1.499829    2.388950
C       0.976937   -2.053705    3.895965
C       0.814659   -3.598037    3.931311
C       1.910780   -3.705839    2.834753
H       0.826254    1.870736    0.130556
H      -0.719117    1.770416   -0.736631
H      -0.690373    1.736275    1.038637
H      -1.054091   -0.566804    0.092056
H       0.464226   -0.436342   -0.813158
H      -0.131083   -2.445249    1.420802
H       1.336428   -2.308673    0.415602
H       2.705281   -0.624897    2.054537
H       1.670825   -1.696957    4.660681
H       0.076549   -1.435192    3.909846
H       1.016455   -4.096646    4.881151
H      -0.165601   -3.925841    3.575105
H       1.754262   -4.407911    2.010342
H       2.903956   -3.873663    3.257961
