8

O      -0.017331   -0.039197    0.003239
C      -0.028362    1.156451    0.009723
N      -1.104482    2.037900    0.028691
C      -0.605405    3.307727    0.028741
N       0.682696    3.336355    0.011753
O       1.074127    1.974071   -0.000665
H      -2.065425    1.743793    0.039936
H      -1.213332    4.199825    0.041541
