20

C      -0.122883    1.595799   -0.245527
C      -0.021678    0.082553   -0.011372
C       0.623346   -0.655027   -1.203240
N       1.956691   -0.248235   -1.612483
C       2.854217    0.251619   -0.888515
O       2.920184    0.563289    0.443934
C       2.181176   -0.169117    1.397486
C       1.267731    0.610849    2.295274
C       0.697060   -0.342739    1.266666
H       0.856791    2.074576   -0.318846
H      -0.659183    1.794102   -1.179099
H      -0.675024    2.079187    0.565929
H      -1.050597   -0.295340    0.059070
H       0.642198   -1.733661   -0.990540
H      -0.020268   -0.538656   -2.084739
H       3.789152    0.573186   -1.349309
H       2.772159   -0.976176    1.823106
H       1.218637    0.346261    3.345573
H       1.196823    1.672819    2.091746
H       0.335742   -1.289292    1.661443
