15

N       0.010037    1.318380    0.007697
C       0.000100   -0.014864    0.000822
N      -1.170917   -0.606867    0.004481
C      -1.436659   -1.930348   -0.001112
N      -0.714179   -3.018188   -0.011181
C       0.644604   -3.024752   -0.019098
C       1.570696   -2.024316   -0.019063
C       1.390827   -0.597112   -0.010331
N       2.338121    0.280192   -0.011002
H       0.913828    1.773646    0.004983
H      -0.864340    1.816036    0.015538
H      -2.511841   -2.118625    0.004168
H       1.054024   -4.035012   -0.026913
H       2.611840   -2.341267   -0.026785
H       3.255415   -0.166922   -0.018652
