21

C      -0.442774    1.340253   -0.111558
C       0.239769   -0.009115   -0.082456
O       1.562069    0.009136   -0.682932
C       2.106898   -0.797432    0.372235
C       0.826873   -0.608912    1.229467
C       1.013593    0.379777    2.386959
C       0.107699   -1.851032    1.738119
C       0.939546   -2.904022    2.449840
O      -1.085981   -1.980424    1.581674
H       0.146189    2.111219    0.391408
H      -0.590741    1.651595   -1.150493
H      -1.425598    1.272576    0.365761
H      -0.396492   -0.749573   -0.585322
H       2.295976   -1.829633    0.044043
H       3.035271   -0.378896    0.779132
H       1.548228    1.270629    2.046208
H       0.049298    0.691673    2.799172
H       1.599772   -0.067085    3.196777
H       0.282094   -3.609269    2.959599
H       1.541115   -3.450520    1.713722
H       1.639526   -2.457157    3.162433
