19

N      -0.013245   -1.159728   -0.022162
C      -0.000424   -0.005349    0.035138
C       0.040285    1.453352    0.113394
C       1.472546    2.020972    0.054163
C       2.224082    1.679125   -1.260549
C       3.197662    2.856077   -1.506169
C       2.517359    4.040618   -0.844664
N       1.078685    4.150228   -1.180023
C       1.495075    3.541096    0.103806
H      -0.541036    1.872796   -0.715387
H      -0.455601    1.759776    1.042056
H       2.036181    1.642885    0.915877
H       2.730563    0.713520   -1.205195
H       1.504320    1.624497   -2.080916
H       4.161384    2.681992   -1.012939
H       3.395437    3.014139   -2.570684
H       3.074498    4.951328   -0.649169
H       0.769229    5.104097   -1.012375
H       1.264416    4.055576    1.031869
