19

C      -0.206955    1.518436   -0.057842
C       0.083082    0.006334   -0.000465
C       0.807846   -0.493702   -1.212260
C       2.061396   -0.979727   -1.272553
C       2.424494   -1.348905   -2.664573
O       3.498805   -1.730509   -3.070511
C       1.177557   -1.125415   -3.499358
C      -0.037644   -1.948424   -3.105418
C       0.151761   -0.546665   -2.563360
H       0.722541    2.091079   -0.127032
H      -0.826066    1.776145   -0.922480
H      -0.739964    1.839192    0.841703
H       0.669141   -0.220512    0.895826
H      -0.869009   -0.533540    0.092404
H       2.739752   -1.116318   -0.439795
H       1.286673   -0.817808   -4.531084
H      -0.788734   -2.098979   -3.874328
H       0.094376   -2.782195   -2.423926
H      -0.537209    0.232112   -2.867927
