12

O       0.145510   -0.110668    0.207467
C       0.040609    1.045089   -0.063368
O      -1.167740    1.479352   -0.566325
N      -1.626360    2.793435   -0.731256
C      -0.851219    3.685382   -1.229043
C       0.555531    3.681429   -1.599049
C       1.512176    2.944130   -1.017696
C       1.256130    1.989638    0.076645
O       2.022353    1.819132    0.991870
H      -1.386266    4.620822   -1.389481
H       0.839017    4.433170   -2.330336
H       2.557283    3.082829   -1.276445
