16

N      -0.178621    1.561895   -0.064376
C      -0.018204    0.140498   -0.067940
C       1.062219   -0.466528   -0.974859
C       2.388398    0.046084   -0.630215
N       3.416858    0.481436   -0.333838
C      -0.327989   -0.544455    1.230059
C      -1.300249   -0.677112    0.064438
C      -2.575636   -0.018879    0.090839
N      -3.618376    0.481107    0.084780
H       0.663845    2.023778    0.263982
H      -0.401220    1.922881   -0.986659
H       1.074839   -1.559507   -0.901076
H       0.852148   -0.218763   -2.022507
H       0.224740   -1.434622    1.507092
H      -0.633236    0.094073    2.048821
H      -1.317690   -1.636768   -0.442412
