18

C      -0.050161    1.540675    0.068890
C      -0.054598    0.005812    0.024779
C       0.652488   -0.530907   -1.192299
C       0.162903   -0.287191   -2.657270
C       0.936576   -1.559608   -3.012070
C       0.941043   -2.033190   -1.626156
N       2.252188   -1.573532   -2.268668
C       2.161981   -0.414471   -1.384777
O       3.043956    0.209846   -0.881863
H       0.974566    1.921519    0.072022
H      -0.568546    1.965153   -0.797295
H      -0.554207    1.902756    0.969232
H       0.437089   -0.387248    0.922982
H      -1.085614   -0.369253    0.042465
H      -0.914297   -0.447473   -2.755048
H       0.448489    0.654766   -3.136333
H       0.931976   -2.122201   -3.936415
H       0.869507   -2.988392   -1.127555
