14

C      -0.020768    1.501555   -0.007755
C       0.000722    0.000531   -0.011263
N      -0.022711   -0.608547   -1.159273
C      -0.004641   -1.974188   -1.225095
N      -0.025264   -2.649546   -2.287780
O       0.041299   -2.708771    0.039071
C       0.063024   -2.035405    1.164770
F       0.103739   -2.833401    2.203268
C       0.046104   -0.692780    1.250219
H       0.869108    1.893798    0.497700
H      -0.055507    1.878316   -1.029522
H      -0.891010    1.868537    0.548306
H      -0.005436   -3.648004   -2.090918
H       0.065596   -0.188866    2.204096
