18

C      -0.059434    1.522185   -0.071886
C      -0.041757    0.023335    0.078116
O       1.247149   -0.619444   -0.026632
C       0.573745   -0.659193    1.219926
C       1.244502   -0.124545    2.503350
C       0.874768   -1.451548    3.190490
C      -0.607247   -1.675546    3.124588
C       0.224682   -1.966612    1.899765
H       0.733809    1.983694    0.521926
H       0.086858    1.808226   -1.118920
H      -1.022829    1.928602    0.255328
H      -0.832557   -0.508540   -0.455218
H       2.319055   -0.008415    2.342953
H       0.843988    0.790285    2.953149
H       1.507552   -1.988373    3.885458
H      -0.975001   -2.551780    3.649063
H      -1.293881   -0.831712    3.134377
H       0.272294   -2.944463    1.437243
