21

C      -1.231709    0.431749    0.515202
C       0.016204   -0.367158    0.177533
O       0.852067   -0.595077    1.028155
C       0.150561   -0.930473   -1.215523
C      -0.673377   -0.348157   -2.351804
C      -0.153653    0.998927   -2.851919
O      -1.016292    1.428935   -3.892799
C       1.512742   -1.516870   -1.544714
C       0.395523   -2.444563   -1.203574
H      -1.321044    1.325402   -0.110104
H      -2.129728   -0.170877    0.337917
H      -1.189846    0.723308    1.564971
H      -0.666770   -1.041597   -3.199865
H      -1.723406   -0.232733   -2.062168
H      -0.127288    1.730980   -2.028402
H       0.881639    0.882048   -3.207912
H      -0.678283    2.258232   -4.242811
H       1.832975   -1.455644   -2.578972
H       2.286007   -1.370960   -0.800584
H       0.420290   -2.923277   -0.231664
H      -0.072944   -3.020709   -1.994136
