16

O      -0.061211    1.433966    0.010235
C       0.017731    0.016134    0.001955
C      -1.402081   -0.533732    0.012537
C      -1.443785   -2.063393    0.004804
C      -2.863596   -2.613260    0.015407
O      -2.784654   -4.031092    0.007134
H       0.833971    1.784730    0.003326
H       0.550313   -0.348629   -0.891853
H       0.567164   -0.358040    0.881563
H      -1.916950   -0.141874    0.898579
H      -1.933671   -0.132521   -0.859329
H      -0.928929   -2.455252   -0.881244
H      -0.912182   -2.464604    0.876663
H      -3.396166   -2.248494    0.909222
H      -3.413042   -2.239089   -0.864193
H      -3.679837   -4.381855    0.013905
