21

C      -0.085892    1.540841   -0.006223
C       0.023772    0.009057    0.008607
C       0.879964   -0.471197   -1.184503
C       1.239254   -1.981371   -1.265211
C       0.285667   -2.933008   -0.578726
C      -0.001631   -2.920836    0.725625
C       0.482696   -1.923231    1.710091
O       1.715854   -1.224630    1.459370
C       0.499787   -0.481689    1.372334
H       0.894170    2.006904    0.146522
H      -0.479357    1.896496   -0.963853
H      -0.754275    1.900766    0.783124
H      -0.986646   -0.401459   -0.128735
H       0.333038   -0.182673   -2.090183
H       1.814476    0.101381   -1.200520
H       1.325320   -2.258930   -2.320375
H       2.228450   -2.122488   -0.823694
H      -0.166888   -3.709458   -1.190460
H      -0.679730   -3.668120    1.130221
H       0.348987   -2.195116    2.756843
H       0.362266    0.223681    2.194283
