15

O      -0.067216    1.276889   -0.249657
C      -0.089956   -0.098621   -0.057365
C      -0.481660   -0.578530    1.331635
C      -1.480557   -0.655944    0.169870
C      -1.346463   -2.158600    0.293907
C      -1.233534   -3.447755   -0.160631
N      -0.328374   -4.119405    0.642758
C       0.161256   -3.245868    1.503265
N      -0.485227   -2.051054    1.367164
H       0.807007    1.604397   -0.011226
H       0.628086   -0.683739   -0.633660
H      -0.487635    0.035785    2.221067
H      -2.365452   -0.057597    0.009194
H      -1.748510   -3.952575   -0.962352
H       0.888551   -3.458318    2.271497
