14

N      -0.163349    1.427612   -0.049087
C      -0.047969    0.019463   -0.010673
C      -1.115481   -0.819352   -0.083887
O      -2.435536   -0.593284   -0.200127
N      -0.617860   -2.113692   -0.015432
C      -1.343291   -3.306229   -0.052484
O      -0.832010   -4.391836    0.012842
C       0.768703   -1.971818    0.098829
N       1.127251   -0.724586    0.103833
H       0.358735    1.816777   -0.829677
H       0.220982    1.849751    0.792005
H      -2.531714    0.370169   -0.228065
H      -2.426155   -3.126977   -0.147656
H       1.401106   -2.841489    0.169967
