18

C      -0.200928   -1.232542    0.049637
C      -0.056473   -0.038294    0.063125
C       0.056574    1.392395    0.063741
C       0.574136    2.176635    1.216178
C       1.650309    1.416776    1.990704
C       2.385751    1.340654    0.647900
C       3.833894    1.592006    0.382323
C       3.202854    0.261484    0.019758
N       1.353230    2.130225   -0.081051
H      -0.319009   -2.287783    0.032955
H      -0.713068    1.896003   -0.516538
H       0.074156    3.081299    1.547191
H       2.165460    2.035085    2.728836
H       1.334434    0.477895    2.453461
H       4.072160    2.274647   -0.426155
H       4.510317    1.632291    1.230049
H       3.444243   -0.609459    0.619848
H       3.030252    0.051758   -1.029968
