24

C      -0.008699    1.376972    0.092710
C      -0.092725   -0.151710   -0.015775
C      -1.540714   -0.667149   -0.004194
N      -2.231728   -0.361027    1.245640
C      -3.120238    0.797442    1.251775
C      -3.673204   -0.583295    1.248699
C       0.625392   -0.652769   -1.256768
C       2.119867   -0.846132   -1.252593
C       1.203250   -2.044976   -1.304809
H       1.034282    1.708073    0.073787
H      -0.524394    1.859879   -0.746596
H      -0.462577    1.736028    1.019792
H       0.404877   -0.584764    0.862712
H      -2.083816   -0.266405   -0.882431
H      -1.524989   -1.757960   -0.112320
H      -3.120457    1.392424    2.160896
H      -3.215971    1.372200    0.331717
H      -4.137173   -0.928615    0.325533
H      -4.084628   -1.019125    2.154915
H       0.203208   -0.285669   -2.190704
H       2.680882   -0.586111   -2.143521
H       2.650910   -0.658151   -0.324670
H       1.123151   -2.656175   -0.411259
H       1.138297   -2.605215   -2.231116
