16

N      -0.045716    1.513152   -1.347248
C      -0.251236    0.709783   -0.144690
C      -1.733162    0.782337    0.251366
O      -1.915033    0.057056    1.462712
C      -2.991371   -0.786111    1.509348
N      -3.022180   -1.408152    2.720773
O      -3.800415   -0.920950    0.624624
C       0.186856   -0.697725   -0.278600
N       0.548946   -1.785010   -0.431469
H       0.943904    1.576081   -1.563228
H      -0.489046    1.065764   -2.144878
H       0.337169    1.155140    0.665456
H      -1.995555    1.832253    0.408355
H      -2.375785    0.363499   -0.526546
H      -2.189275   -1.408986    3.284990
H      -3.645480   -2.193415    2.798508
