19

O      -0.075534   -0.021284    0.037431
C       0.028299    1.177692   -0.044149
C       1.321381    1.929191   -0.053814
C       1.364570    3.194789    0.885292
C       1.918025    4.008392   -0.280038
C       3.008652    3.237079   -1.007024
C       3.733363    2.103101   -0.281082
C       2.602908    1.100275    0.077576
C       1.566877    2.903053   -1.259852
H      -0.877604    1.824221   -0.124045
H       0.357118    3.523231    1.158256
H       1.965273    3.095077    1.796178
H       1.815500    5.080030   -0.405116
H       3.534350    3.804366   -1.767742
H       4.487272    1.643381   -0.926764
H       4.257588    2.464884    0.609988
H       2.711515    0.670740    1.077549
H       2.572119    0.267544   -0.631515
H       1.053400    2.921142   -2.211948
