18

O      -1.975284    1.940246   -0.064449
C      -2.567756    0.672961   -0.072365
C      -1.513453   -0.417312    0.007566
N      -0.294322   -0.041723    0.054370
N      -1.904893   -1.755998    0.026590
C      -3.168055   -2.331920   -0.003536
N      -4.238982   -1.660583   -0.126698
C      -3.112773   -3.856607    0.140475
O      -4.356739   -4.464476   -0.102151
H      -1.018947    1.775734   -0.016302
H      -3.267125    0.549345    0.765960
H      -3.170304    0.514317   -0.976956
H       0.376116   -0.807667    0.107935
H      -1.134071   -2.406193    0.083955
H      -5.030198   -2.304387   -0.086403
H      -2.320377   -4.260515   -0.510215
H      -2.839910   -4.107831    1.172357
H      -4.542809   -4.405101   -1.045580
