17

C       0.091500    1.378461    0.022298
O      -0.001015   -0.032403   -0.016658
C      -1.249396   -0.587743   -0.011881
C      -2.448827    0.095940    0.025951
C      -3.644790   -0.636981    0.035102
C      -3.569203   -2.016439    0.016808
N      -2.412218   -2.695260   -0.014839
C      -1.277005   -2.007192   -0.039150
N      -0.091433   -2.704910   -0.133726
H       1.156210    1.617181    0.014141
H      -0.387970    1.836499   -0.852379
H      -0.364451    1.787442    0.933431
H      -2.471941    1.178448    0.048716
H      -4.602621   -0.131363    0.062952
H      -4.471217   -2.622565    0.031434
H      -0.162987   -3.674762    0.133164
H       0.731642   -2.220932    0.187742
