14

O      -0.076133   -0.058566    0.005039
C       0.010065    1.152525    0.009741
C      -1.201706    2.135803    0.031394
O      -0.693792    3.492900    0.030919
C       0.650442    3.367376    0.011573
C       1.117113    2.065525   -0.001270
N       2.493906    2.123231   -0.020177
C       2.863385    3.437383   -0.018894
C       1.740426    4.258271    0.000722
H      -1.831507    1.995799   -0.851784
H      -1.806690    1.987136    0.930363
H       3.118290    1.335959   -0.032758
H       3.906721    3.713840   -0.032073
H       1.738087    5.335537    0.005998
