23

C      -0.185898    0.847172   -1.978780
C      -0.024164   -0.298103   -1.001647
C       1.303481   -0.626769   -0.333987
C       2.573531    0.154984   -0.592193
C       0.167329   -0.062561    0.474880
C       0.182446    1.274419    1.254539
C      -0.543380    0.562831    2.407445
C      -1.832174   -0.047576    1.931483
C      -0.537785   -0.754152    1.626588
H       0.379373    1.732355   -1.674668
H       0.153460    0.567549   -2.982860
H      -1.237365    1.145659   -2.057720
H      -0.630445   -1.167712   -1.249160
H       1.477380   -1.691480   -0.185881
H       2.385868    1.225988   -0.706173
H       3.281227    0.034905    0.236244
H       3.072655   -0.190964   -1.504304
H       1.194458    1.592538    1.521021
H      -0.345311    2.125344    0.808863
H      -0.344329    0.725189    3.459546
H      -2.441951   -0.503927    2.705340
H      -2.402082    0.419249    1.130970
H      -0.328643   -1.757995    1.978933
