20

C      -0.032253    1.461090   -0.003591
N       0.021373    0.021241   -0.175824
C      -1.236523   -0.707954   -0.084179
C      -1.156442   -2.067051   -0.776362
C       0.097154   -2.811820   -0.386539
C       0.089460   -4.306133   -0.514387
C       1.167737   -2.111322    0.004072
C       1.218617   -0.629298    0.041259
O       2.272109   -0.034769    0.221836
H       0.983924    1.847805   -0.065775
H      -0.651138    1.913236   -0.786423
H      -0.455797    1.738184    0.972985
H      -1.524246   -0.848101    0.971574
H      -2.018672   -0.097316   -0.546897
H      -2.048268   -2.652793   -0.525951
H      -1.168887   -1.939519   -1.868764
H      -0.165456   -4.606966   -1.538998
H       1.059132   -4.740348   -0.260097
H      -0.673004   -4.751481    0.137194
H       2.107134   -2.589168    0.260299
