14

C       0.561929    1.325391   -0.295217
C      -0.003209   -0.041222    0.031895
O       0.196813   -0.987209   -1.018155
C       1.276830   -1.816897   -0.667085
C       2.519982   -1.471782   -1.378530
N       3.485730   -1.186836   -1.944231
C       1.435123   -1.619984    0.859317
O       2.108356   -2.242491    1.616500
O       0.631216   -0.588747    1.194032
H       1.635798    1.262596   -0.491153
H       0.062824    1.719660   -1.183897
H       0.391227    2.008958    0.540503
H      -1.077736   -0.005276    0.233658
H       1.024946   -2.861523   -0.875616
