14

C      -0.002656    1.455558    0.019239
N      -0.032109    0.004891    0.001006
C      -0.024864   -0.828349   -1.115888
C       0.023448   -2.131366   -0.719986
N       0.055031   -2.086527    0.667161
N       0.100430   -2.892042    1.763935
N       0.101389   -2.070657    2.775528
N       0.059246   -0.758503    2.415399
C       0.028210   -0.804971    1.094635
H       1.021324    1.837211   -0.050023
H      -0.588252    1.842360   -0.817404
H      -0.446282    1.802970    0.953687
H      -0.062636   -0.416829   -2.111175
H       0.028662   -3.046574   -1.283305
