21

O      -0.779317    0.394386    0.196933
C      -0.177000    1.436821    0.179323
C       1.242100    1.611630   -0.320976
C       1.342442    2.715814   -1.357801
C       1.422588    4.171468   -0.937833
C       2.616640    3.489073   -1.541422
C       3.975245    3.285866   -0.851649
C       4.642350    4.004780   -2.062728
C       3.306758    3.884820   -2.854762
H      -0.651251    2.380207    0.537018
H       1.866552    1.871201    0.546027
H       1.592206    0.649866   -0.709223
H       0.780253    2.520800   -2.268883
H       0.889009    4.907297   -1.531370
H       1.450068    4.394051    0.125480
H       4.108931    3.749248    0.129599
H       4.261987    2.231494   -0.778204
H       4.899542    5.042388   -1.837710
H       5.516500    3.517448   -2.498900
H       3.320939    3.071143   -3.587201
H       2.943663    4.789796   -3.349680
