21

C       0.305457    1.491319   -0.201531
C       0.035543    0.002745   -0.031375
O      -1.357994   -0.249501    0.102344
C       0.740059   -0.936751   -1.062840
C       1.459807   -1.686231    0.090933
C       2.947395   -1.368537    0.276395
O       3.000332   -0.080170    0.883980
C       1.926076   -0.043119    1.820246
C       0.758192   -0.747495    1.132035
H       1.378030    1.696571   -0.250232
H      -0.145688    1.848683   -1.136225
H      -0.130823    2.062324    0.624358
H      -1.800853    0.133823   -0.663091
H       0.027181   -1.550397   -1.618078
H       1.408791   -0.433658   -1.768248
H       1.249873   -2.754174    0.157724
H       3.420195   -2.118719    0.931692
H       3.513213   -1.318774   -0.658555
H       2.199539   -0.583068    2.741851
H       1.743409    1.003465    2.076509
H       0.050970   -1.201835    1.825942
