17

C       0.000758    1.511073   -0.004006
C       1.430524    2.063826    0.052296
O       2.132023    1.680556    1.253336
C       1.913824    0.377752    1.525723
C       0.984477   -0.482740    1.013479
C      -0.023421   -0.034651    0.004435
N       1.136706   -1.725924    1.597693
C       2.133455   -1.602839    2.438749
N       2.654733   -0.327168    2.437424
H      -0.553019    1.893867    0.860889
H      -0.485123    1.908081   -0.901375
H       2.009998    1.709316   -0.811587
H       1.436826    3.155739    0.053874
H      -1.026481   -0.395953    0.256226
H       0.203631   -0.427685   -0.995987
H       2.529025   -2.377058    3.078062
H       3.420518    0.028634    2.984010
