21

C      -0.060828    1.558231   -0.063527
C       0.081671    0.052586    0.043327
C       1.359717   -0.721637   -0.197260
C       2.547763   -0.017644    0.412190
O       3.056672   -0.816185    1.497509
C       1.906161    0.016970    1.742329
C       1.987812    0.988826    2.876815
C       0.683167   -0.717402    1.198204
C      -0.002023   -1.850588    1.909464
H       0.814547    2.085532    0.321429
H      -0.195149    1.857202   -1.109070
H      -0.936496    1.907981    0.494782
H      -0.780818   -0.474170   -0.366670
H       1.413041   -1.554680   -0.888768
H       3.240542    0.684463   -0.037880
H       2.965509    1.477484    2.892018
H       1.209791    1.754237    2.795740
H       1.853125    0.475786    3.836021
H      -0.614196   -1.489938    2.745068
H      -0.663639   -2.401914    1.233468
H       0.735086   -2.554751    2.309352
