15

O       0.356878    0.984380    0.772491
C       0.021716    0.058856   -0.252931
C      -1.397101   -0.421815   -0.162270
C      -2.164563   -0.437644    0.976060
N      -3.401922   -0.962584    0.642596
C      -3.415878   -1.270317   -0.684764
O      -4.561005   -1.790701   -1.195659
C      -2.195759   -0.951147   -1.229974
H      -0.322634    1.667355    0.758963
H       0.206396    0.482902   -1.254006
H       0.730908   -0.769689   -0.131867
H      -1.934299   -0.141384    1.985014
H      -4.187499   -1.083190    1.257487
H      -4.422450   -1.962934   -2.131581
H      -1.903108   -1.073992   -2.261887
