20

C      -0.111650    0.815096    0.551084
N       0.172158   -0.521698    0.065370
C       0.740236   -0.760122   -1.134231
O       1.057127    0.104834   -1.943266
C       0.968698   -2.241653   -1.499710
O       1.684433   -2.296365   -2.701423
C       1.737516   -3.024224   -0.429219
O       0.896470   -3.208432    0.697982
C       1.518431   -3.928193    1.741118
H       0.085194    1.514873   -0.261464
H      -1.159177    0.903782    0.857182
H       0.524516    1.076269    1.404696
H       0.052169   -1.320715    0.673826
H      -0.021715   -2.715943   -1.604856
H       1.735815   -1.366018   -2.987643
H       2.029510   -3.994534   -0.855993
H       2.658221   -2.488302   -0.149703
H       1.822209   -4.930829    1.406779
H       2.408889   -3.405006    2.120720
H       0.790735   -4.028582    2.549618
