17

O       0.055488    1.401561    0.221088
C      -0.042114    0.017419    0.047011
C      -1.410303   -0.666225    0.071738
C      -2.234157   -0.268733   -1.137622
C      -1.151500   -1.269286   -1.318475
O      -1.438870   -2.508902   -1.845144
C       0.229124   -0.579798   -1.407440
C       0.440136    0.387894   -2.463791
C       0.570657    1.259017   -3.285024
H      -0.179691    1.830712   -0.610706
H       0.640828   -0.434982    0.770993
H      -1.872007   -1.106551    0.947085
H      -3.229189   -0.700560   -1.152192
H      -2.169662    0.724655   -1.574110
H      -0.818168   -3.150453   -1.481180
H       1.047543   -1.306215   -1.376837
H       0.704824    1.995250   -4.038827
