20

C      -0.003724    1.527848    0.020656
C       0.001319    0.022167   -0.012710
C       0.631002   -0.772827   -1.196188
C       1.179252   -1.766115   -0.210950
C       0.795303   -0.870115    0.996911
C      -0.501845   -1.237241    1.741720
C      -1.268086   -0.809074    0.458948
C      -1.301435   -1.985288   -0.525792
N       0.051217   -2.099132   -1.097604
H       0.999082    1.931637   -0.159598
H      -0.669557    1.939566   -0.747731
H      -0.343553    1.907451    0.990573
H       1.008339   -0.396517   -2.141288
H       2.051096   -2.408584   -0.270505
H       1.662614   -0.484472    1.536983
H      -0.640522   -2.268830    2.081662
H      -0.678639   -0.559968    2.582502
H      -2.224796   -0.295038    0.573341
H      -1.592591   -2.926586   -0.048062
H      -1.989150   -1.800204   -1.359005
