15

O      -0.132696    0.048304   -0.209448
C       0.073192    1.077880    0.401014
N       1.278598    1.684773    0.502221
C       2.463821    1.143542   -0.133383
C       3.559008    2.167354   -0.110128
N       4.653698    2.066373   -0.846235
N       5.344667    3.173225   -0.481186
C       4.654275    3.880659    0.429980
N       3.513740    3.271822    0.693465
H      -0.718195    1.633905    0.942039
H       1.391015    2.537600    1.029856
H       2.797406    0.229898    0.378132
H       2.235397    0.850083   -1.162357
H       6.240817    3.364745   -0.898715
H       5.007304    4.805095    0.860995
