19

C      -0.028036    1.525948   -0.145747
C       0.021955    0.009232   -0.101196
C       0.859658   -0.760307   -1.153682
C       1.348324   -1.637441    0.039184
C       2.832802   -1.916826    0.093131
O       3.340501   -2.984015   -0.136695
N       0.881624   -0.580629    0.949641
C       0.292846   -0.961327    2.215849
H       0.982828    1.941719   -0.194846
H      -0.592666    1.868429   -1.019777
H      -0.519121    1.930203    0.746199
H      -1.002999   -0.399852   -0.059452
H       0.330945   -1.278928   -1.952363
H       1.659281   -0.147348   -1.578437
H       0.793792   -2.585789    0.108729
H       3.436361   -1.014057    0.345414
H       1.045776   -1.443675    2.847990
H      -0.061030   -0.069046    2.742482
H      -0.559656   -1.657324    2.106228
