18

C      -0.067492    1.528262    0.010333
C       0.049892    0.029783   -0.031651
C       0.771269   -0.704918   -1.188660
C      -0.375922   -1.710882   -0.978130
C      -0.055831   -2.711586    0.130081
N       0.483091   -1.963116    1.259791
C       0.513072   -0.594946    1.300269
O       0.880283    0.043416    2.265820
O      -1.194204   -0.659900   -0.401228
H       0.902360    1.972662    0.248196
H      -0.414822    1.905892   -0.954606
H      -0.770993    1.833108    0.789453
H       0.669198   -0.161089   -2.129472
H       1.801112   -1.035916   -1.041083
H      -0.844964   -2.190642   -1.840358
H      -0.973352   -3.242072    0.416725
H       0.670066   -3.454833   -0.226505
H       0.700937   -2.437379    2.123346
