18

C      -0.073091    1.557415   -0.025893
C       0.010326    0.023990   -0.008754
C       0.743873   -0.518063   -1.242467
O       0.991925   -1.908154   -1.123085
C       1.904128   -2.212722   -0.095953
C       1.581408   -1.485564    1.198568
C       0.695005   -0.481402    1.232070
C       2.272148   -1.920208    2.368282
N       2.856919   -2.302820    3.292473
H       0.925155    2.007419   -0.008172
H      -0.587788    1.908635   -0.925798
H      -0.624788    1.929969    0.842543
H      -1.014654   -0.375484   -0.017508
H       0.142137   -0.389584   -2.146030
H       1.689545    0.032523   -1.381172
H       1.851932   -3.294904    0.060440
H       2.939309   -1.975968   -0.398409
H       0.465620    0.005812    2.175983
