22

C      -0.214311    1.501962   -0.045338
C      -0.006111   -0.014058   -0.138299
C       0.884893   -0.479823   -1.306902
C       2.334405    0.010355   -1.149893
O       3.164099   -0.313810   -2.252008
C       0.841593   -1.994179   -1.437861
C      -0.304145   -2.672658   -2.141363
C       1.066106   -2.679332   -2.771311
H       0.715902    2.036755    0.168463
H      -0.619312    1.902993   -0.981313
H      -0.921240    1.747896    0.753274
H       0.417673   -0.385375    0.805295
H      -0.981919   -0.503301   -0.240587
H       0.493036   -0.047005   -2.239120
H       2.362129    1.101128   -1.074481
H       2.748417   -0.389674   -0.207174
H       3.124361   -1.268711   -2.365644
H       1.231768   -2.520775   -0.567937
H      -0.686837   -3.601590   -1.733767
H      -1.062132   -2.041434   -2.594203
H       1.220725   -2.051647   -3.642514
H       1.615757   -3.614618   -2.791782
