10

O      -0.062296    0.002249   -0.001066
C       0.021847    1.192095    0.007695
N       1.247891    1.900842   -0.000377
N       2.459339    1.326896   -0.018253
C       3.283383    2.359926   -0.019481
C       2.525488    3.557861   -0.001690
N       1.242560    3.246751    0.010077
H      -0.811809    1.911646    0.022108
H       4.352747    2.217687   -0.032499
H       2.852131    4.585860    0.002629
