15

C      -0.029653    1.491053   -0.027158
C      -0.036292    0.000090   -0.035288
C      -0.065632   -0.863352   -1.084317
O      -0.059283   -2.136890   -0.595495
C      -0.025644   -1.978671    0.758363
N      -0.010979   -0.741395    1.138175
C      -0.010149   -3.203472    1.613783
N      -0.032937   -4.368598    0.905698
O       0.019931   -3.140129    2.823728
H       0.865476    1.871137    0.475274
H      -0.052522    1.891323   -1.043790
H      -0.896152    1.878726    0.517866
H      -0.091126   -0.756709   -2.155404
H      -0.057407   -4.382529   -0.098483
H      -0.024055   -5.233326    1.419314
