19

C      -0.052758    1.605091    0.004388
C       0.022446    0.088005    0.006474
O      -1.267512   -0.495388   -0.150789
C       1.078846   -0.643574   -0.875453
C       2.473065   -0.249503   -0.344473
C       2.657072   -1.516080    0.459220
C       2.198358   -0.263052    1.169509
C       0.709221   -0.664343    1.174990
C       1.148917   -1.808513    0.184588
H       0.929767    2.053568    0.174754
H      -0.426037    1.975014   -0.959343
H      -0.737846    1.953484    0.783898
H      -1.607231   -0.229114   -1.011899
H       0.932291   -0.794262   -1.945837
H       3.222243    0.389728   -0.792535
H       3.526422   -2.141084    0.611033
H       2.740577    0.365010    1.863804
H       0.192809   -0.834011    2.118572
H       0.656142   -2.770068    0.088126
