15

C      -0.054384    1.509359    0.068363
C      -0.016925    0.025345   -0.043164
C      -0.037266   -0.816436   -1.103783
N       0.016498   -2.162812   -0.731697
C       0.069877   -2.151694    0.556787
O       0.133028   -3.202338    1.358850
N       0.054458   -0.837770    1.080752
C       0.101265   -0.525054    2.413960
O       0.162963   -1.361597    3.297302
H       0.840367    1.919446    0.553499
H      -0.108453    1.937920   -0.935002
H      -0.927382    1.869277    0.627327
H      -0.088564   -0.542087   -2.146770
H       0.161810   -2.867973    2.280568
H       0.079926    0.555412    2.618742
