17

C       0.058990    1.450073    0.005280
C       1.336133    0.624557   -0.045851
C      -0.001581   -0.043258   -0.018167
C      -0.663467   -0.907736    1.028121
C      -1.702573   -1.353292    0.069891
C      -0.693640   -0.923058   -1.071424
C      -0.035196   -2.290033   -0.811724
N      -0.691349   -2.338946    0.540661
H      -0.179392    1.963118    0.931870
H      -0.229340    1.994507   -0.888441
H       1.896509    0.618451   -0.975840
H       1.953688    0.586580    0.845823
H      -0.722533   -0.764650    2.099384
H      -2.774392   -1.483186    0.138864
H      -0.918403   -0.542479   -2.066444
H      -0.448719   -3.100374   -1.417434
H       1.059641   -2.341446   -0.807297
