16

C       0.031307    1.536369    0.023865
C      -0.008663    0.042673    0.021947
C      -1.067702   -0.789933   -0.001758
N      -2.415640   -0.514667    0.040963
C      -0.576735   -2.213640    0.014629
O       0.840976   -2.112390    0.033397
C       1.200818   -0.775716    0.046043
N       2.399480   -0.362908    0.063885
H       0.902124    1.884774   -0.537822
H      -0.868484    1.971431   -0.426544
H       0.122515    1.941757    1.038723
H      -2.674239    0.439289   -0.166582
H      -3.021582   -1.183518   -0.411970
H      -0.922925   -2.760249    0.902367
H      -0.892586   -2.779068   -0.874412
H       3.050335   -1.148491    0.063680
