21

C       1.199477   -0.923714   -1.341842
C       0.933061    0.177151   -0.935277
C       0.564997    1.505578   -0.487604
C       0.514399    1.825412    1.051674
C       2.068334    1.720760    1.027078
C       1.684345    2.576873   -0.216244
C       0.650152    3.354239    0.686596
C      -0.531985    4.073512    0.021770
C       1.195272    4.309977    1.755878
H       1.440525   -1.895363   -1.695358
H      -0.287473    1.851477   -1.069163
H      -0.170100    1.374432    1.773309
H       2.629639    2.196747    1.827070
H       2.469512    0.730819    0.810567
H       2.357536    2.998010   -0.966005
H      -1.032019    3.516049   -0.770383
H      -1.290024    4.318440    0.774326
H      -0.194799    5.021746   -0.411951
H       1.502928    5.253625    1.291052
H       0.406379    4.552102    2.477120
H       2.047094    3.930998    2.319315
