21

C       0.046427    1.625501   -0.035065
C       0.064689    0.104694    0.007750
C       1.109034   -0.658589   -0.855700
O       2.387622   -0.091962   -0.449813
C       2.187009   -0.766503    0.792973
C       0.698652   -0.641382    1.191556
C       0.211958   -0.725684    2.607568
C       1.202053   -1.761218    0.272614
C       1.088585   -3.250297    0.293537
H       1.060707    2.019788    0.063554
H      -0.371971    1.988463   -0.980781
H      -0.566317    2.036215    0.774941
H      -0.930198   -0.315091   -0.184326
H       1.015354   -0.788725   -1.932993
H       3.011465   -0.843037    1.491430
H       0.244642    0.253909    3.098381
H      -0.821091   -1.089324    2.658182
H       0.829704   -1.408575    3.201952
H       0.095558   -3.585316   -0.028205
H       1.829539   -3.719676   -0.363489
H       1.251925   -3.635465    1.305979
