12

N       0.066623    1.306489    0.007285
C       0.058879   -0.036030    0.000395
O       1.028744   -0.775033   -0.013077
C      -1.384790   -0.599858    0.011135
O      -2.357404    0.115231    0.024176
N      -1.350534   -1.977590    0.003946
C      -2.424769   -2.864530    0.009859
O      -3.585138   -2.563087    0.022522
H       0.936905    1.810665    0.001652
H      -0.817831    1.790520    0.018545
H      -0.404501   -2.347274   -0.006886
H      -2.059869   -3.910145    0.001255
