13

N      -0.051642    1.361017    0.010808
C      -0.033650    0.086194    0.003657
N       1.118844   -0.720221   -0.007931
N       1.215101   -2.062444   -0.015934
N       0.147281   -2.751938   -0.013126
C      -1.072047   -2.101886   -0.001991
C      -1.237093   -0.749266    0.006495
C      -2.515495   -0.144770    0.017750
C      -3.616677    0.341550    0.027233
H       0.887414    1.761522    0.007206
H       2.024429   -0.270434   -0.011056
H      -1.928294   -2.765466   -0.000350
H      -4.581034    0.786610    0.035568
