18

N      -0.059681    1.247056    0.388355
C       0.117475   -0.024253   -0.090508
O       1.182509   -0.404706   -0.537369
C      -1.143622   -0.856212   -0.070985
C      -1.136148   -2.354847    0.036811
C       0.133138   -3.068744    0.509807
C       0.337961   -2.534785    1.910756
C      -0.648486   -1.719504    2.292579
C      -1.654224   -1.526304    1.206248
H       0.763070    1.819046    0.495471
H      -0.866198    1.472845    0.945001
H      -1.924234   -0.443664   -0.706687
H      -1.823455   -2.893497   -0.604768
H      -0.009423   -4.157355    0.514595
H       0.988567   -2.849917   -0.135445
H       1.211976   -2.779687    2.503385
H      -0.718188   -1.221053    3.252735
H      -2.709293   -1.437967    1.443867
