18

C      -0.085568    1.513646   -0.039324
C       0.088797   -0.016045   -0.007633
C       0.754544   -0.489376    1.198196
C       1.310347   -0.854170    2.203114
C       1.965300   -1.291277    3.386666
N       2.674092   -0.563822    4.157183
C       3.137871   -1.439729    5.240606
C       2.542489   -2.833076    4.909909
O       1.796982   -2.613160    3.693008
H       0.883850    2.015855    0.010799
H      -0.586452    1.816931   -0.963050
H      -0.686340    1.853520    0.808111
H      -0.889810   -0.505401   -0.092272
H       0.665222   -0.342214   -0.883033
H       4.232827   -1.446140    5.270164
H       2.791631   -1.051855    6.204891
H       3.300292   -3.597000    4.713644
H       1.852088   -3.206759    5.671330
