18

O      -0.035372    1.363066   -0.008068
C       0.015036   -0.040066    0.003010
C       0.701245   -0.691968    1.229710
C       0.187230   -2.164865    1.161370
C      -0.733166   -2.121465   -0.077524
C      -1.362522   -0.726888    0.014896
O       0.096396   -2.029038   -1.250919
C       0.608393   -0.688507   -1.268624
H       0.864290    1.698114    0.068260
H       1.792601   -0.618609    1.176726
H       0.374327   -0.183381    2.141344
H       0.987052   -2.894201    1.017027
H      -0.367221   -2.443754    2.062590
H      -1.396693   -2.977380   -0.201528
H      -1.919149   -0.548246    0.938226
H      -1.978793   -0.472615   -0.850253
H       0.268373   -0.161244   -2.169660
H       1.707006   -0.705662   -1.264250
