15

C      -0.000705    1.428072    0.164392
N      -0.042902    0.041444   -0.270099
C      -1.174192   -0.713598   -0.104384
C      -1.346739   -2.088898    0.001630
N      -2.697317   -2.400005    0.082346
C      -3.319324   -1.260679    0.035858
N      -2.440964   -0.196046   -0.074238
C      -0.295939   -3.030871    0.031030
N       0.621299   -3.741474    0.054833
H       1.008894    1.811686    0.008712
H      -0.673368    2.042421   -0.445579
H      -0.267137    1.563069    1.223116
H       0.802311   -0.486884   -0.108832
H      -4.386890   -1.110924    0.082842
H      -2.685265    0.776931   -0.147882
