17

C       0.089559    1.607157    0.009620
C      -0.008496    0.077362    0.020530
C       0.775989   -0.598171   -1.128752
O       1.985581   -1.081694   -0.537417
C       1.845518   -1.121654    0.823897
O       2.667387   -1.599383    1.559500
N       0.648126   -0.540852    1.158674
C       0.246582   -0.361679    2.533631
H       1.136549    1.927206    0.000091
H      -0.404327    2.010016   -0.880522
H      -0.396473    2.045163    0.886206
H      -1.065134   -0.216926   -0.012134
H       0.226303   -1.444569   -1.555117
H       1.034809    0.099050   -1.929012
H       0.933693   -0.941479    3.151959
H       0.294890    0.688665    2.847194
H      -0.776089   -0.723961    2.691404
