17

O       0.260493    1.289456    0.031047
C       0.103970   -0.051949    0.006737
C      -0.118214   -0.896816   -1.054367
C      -0.205723   -2.222484   -0.512170
C      -0.034511   -2.121600    0.844721
N       0.155737   -0.783756    1.153984
N      -0.213451   -0.371048   -2.369286
C       0.317877   -1.161488   -3.484466
C      -1.149413   -0.993661   -3.311123
H       0.182461    1.563800   -0.894541
H      -0.374755   -3.140555   -1.054367
H      -0.029205   -2.870422    1.618583
H       0.308139   -0.397975    2.068830
H       0.847676   -0.598297   -4.248027
H       0.747471   -2.131618   -3.248509
H      -1.718187   -1.849600   -2.957228
H      -1.701534   -0.306726   -3.946876
