21

C       0.024094    1.537820   -0.009290
C       0.018914    0.022428    0.016936
C       1.347646   -0.692155   -0.200631
C       0.706363   -0.688385    1.161059
O       1.252578    0.117158    2.171927
C       0.089313   -1.971825    1.692984
O      -0.701515   -2.635997    0.728069
C      -1.753312   -1.797402    0.273684
C      -1.231753   -0.637381   -0.579559
H       0.927342    1.940717    0.452105
H      -0.033942    1.904084   -1.041014
H      -0.836359    1.942555    0.536092
H       1.341212   -1.622036   -0.761163
H       2.228072   -0.071978   -0.335904
H       2.110692   -0.249650    2.411482
H       0.869250   -2.680937    1.996218
H      -0.509921   -1.721911    2.584884
H      -2.431305   -2.434809   -0.301273
H      -2.310956   -1.407886    1.141627
H      -2.029902    0.107512   -0.677238
H      -1.010918   -0.993565   -1.592623
