16

O       0.009970   -0.038714   -0.210510
C       0.062741    1.136215    0.055956
C       1.299059    1.945391    0.076765
C       1.189243    3.438637   -0.221634
C       1.490355    3.004638    1.167470
C       0.549923    3.199053    2.368729
O       1.465568    3.473282    3.456822
C       2.702436    3.424647    2.910241
N       2.835954    3.175229    1.672907
H      -0.864749    1.707912    0.304791
H       2.199617    1.429570   -0.234428
H       1.991754    3.884904   -0.796036
H       0.195513    3.826208   -0.429128
H      -0.121485    4.056072    2.259388
H      -0.034053    2.314642    2.635523
H       3.511207    3.614365    3.605733
