15

C      -0.016185    1.461864   -0.114035
C       0.123770   -0.029211    0.057126
O       0.532792   -0.591121    1.039073
O      -0.284148   -0.665109   -1.074051
C      -0.206771   -2.116063   -1.059052
C      -1.550184   -2.666684   -1.227515
C      -2.649292   -3.133851   -1.345281
C       0.713522   -2.555057   -2.106269
C       1.481391   -2.930150   -2.948786
H       0.582483    1.796039   -0.965839
H      -1.057934    1.715184   -0.329036
H       0.312161    1.963083    0.795403
H       0.188653   -2.402768   -0.076841
H      -3.621316   -3.548349   -1.454115
H       2.157446   -3.263381   -3.697379
