15

C      -0.089765    1.547355   -0.003772
C      -0.005017    0.053253    0.057840
O      -1.245645   -0.603800   -0.193007
C      -1.238313   -1.722521    0.565510
N      -0.253248   -1.935807    1.345582
C       0.670058   -0.852319    1.101732
C       1.204581   -0.764436   -0.319158
O       1.073756   -1.822397   -1.208677
H       0.888906    1.986213    0.209144
H      -0.399777    1.879196   -1.000052
H      -0.806446    1.932630    0.728099
H      -2.109499   -2.355827    0.452469
H       1.271367   -0.517044    1.939085
H       2.123340   -0.187921   -0.423798
H       1.221137   -2.641922   -0.722514
