20

C      -0.029388    1.562994   -0.430642
C       0.012690    0.159553    0.185024
C      -1.354805   -0.488597    0.249585
C      -1.934061   -1.231316   -0.948656
C      -1.526933   -1.974991    0.283505
C      -0.419921   -3.032239    0.383815
N      -0.977011   -4.066535    1.275031
C      -2.132403   -3.655637    1.593259
O      -2.592159   -2.477187    1.110960
H       0.969883    2.006778   -0.473415
H      -0.430780    1.532948   -1.448865
H      -0.667618    2.231638    0.157000
H       0.692360   -0.473920   -0.398986
H       0.439650    0.213556    1.194937
H      -2.089841    0.055353    0.838767
H      -2.995018   -1.131599   -1.148805
H      -1.310330   -1.348046   -1.831015
H      -0.169111   -3.473620   -0.587356
H       0.508042   -2.636416    0.812090
H      -2.827656   -4.173214    2.244812
