15

N      -0.206743    1.488205    0.143280
C      -0.037272    0.116264   -0.004886
C      -1.044987   -1.021557   -0.047847
C      -0.438230   -1.637619   -1.302543
C       0.880614   -0.939596   -0.875335
O       1.251772   -1.611696    0.352493
C       0.123373   -0.999773    0.968519
C       1.959693   -0.657858   -1.778623
N       2.796105   -0.365114   -2.522378
H       0.644468    1.974838    0.400523
H      -0.624975    1.936839   -0.663573
H      -2.080824   -0.991791    0.262489
H      -0.376269   -2.726058   -1.384212
H      -0.851760   -1.200088   -2.213510
H       0.018591   -1.050081    2.043088
