16

O      -0.146295    1.351175    0.044103
N       0.027637   -0.045243    0.008569
C      -1.094540   -0.640723    0.000866
C      -2.512290   -0.088610    0.023310
C      -3.267699   -1.415487   -0.004727
C      -2.511182   -2.475095    0.853406
O      -2.907167   -3.551691   -0.059670
C      -2.522235   -2.431262   -0.923404
C      -1.268772   -2.118431   -0.034503
H       0.762983    1.668777    0.046279
H      -2.702765    0.508237    0.921340
H      -2.713736    0.551745   -0.841750
H      -4.355880   -1.435945    0.001537
H      -2.551160   -2.666762    1.926114
H      -2.575605   -2.569815   -2.003677
H      -0.408753   -2.781721   -0.056217
