17

N       0.060931    1.463536    0.391090
C       0.085764    0.194354    0.161835
C      -1.296494   -0.401768    0.061041
O      -1.564610   -1.558597   -0.147253
N       1.174257   -0.609657    0.010705
C       1.187272   -2.059686   -0.252906
C       2.658988   -2.355985   -0.314619
C       3.392074   -1.265580   -0.121050
C       2.525517   -0.059125    0.102233
H       0.994780    1.867412    0.458860
H      -2.065547    0.380616    0.206352
H       0.678389   -2.622528    0.538526
H       0.669482   -2.309049   -1.186738
H       3.031037   -3.355896   -0.497829
H       4.472399   -1.205343   -0.115860
H       2.691479    0.724929   -0.654871
H       2.701467    0.411118    1.083635
