22

C       0.212269    1.865673   -1.160052
C       0.128621    0.357212   -1.057748
C       0.791395   -0.684679   -1.869316
C       2.270131   -0.460749   -2.189674
C       2.717186    0.571518   -3.210898
O       4.128759    0.436313   -3.335068
C       2.488779   -0.288950   -0.654244
C       3.151451    0.933191   -0.037729
N       1.030787   -0.576367   -0.353580
H       0.088605    2.321738   -0.171639
H       1.139337    2.238469   -1.589849
H      -0.609170    2.222078   -1.791775
H      -0.887907    0.056636   -0.798847
H       0.223282   -1.513981   -2.283007
H       2.720969   -1.405535   -2.507242
H       2.208173    0.373243   -4.168968
H       2.453196    1.593891   -2.911098
H       4.445228    1.114859   -3.938502
H       3.024955   -1.165877   -0.280303
H       2.747766    1.884490   -0.385426
H       3.040279    0.902101    1.051378
H       4.220312    0.919942   -0.273756
