16

C      -0.076219    1.336072    0.099942
N      -0.012763   -0.113348    0.012816
C       0.593275   -0.631601   -0.977170
N       1.244397   -0.078382   -2.057783
C       1.715359   -1.088639   -2.943260
O       2.280685   -0.849258   -3.984822
C       1.363852   -2.366797   -2.317511
C       0.708721   -2.114499   -1.156610
N       0.200362   -2.900929   -0.188210
H       0.908463    1.809768   -0.027942
H      -0.749472    1.754096   -0.662401
H      -0.465192    1.625518    1.078702
H       1.276375    0.897561   -2.296367
H       1.620059   -3.317993   -2.756539
H       0.086519   -3.889239   -0.324897
H      -0.349559   -2.437586    0.519650
