17

C      -0.111295    1.425744   -0.010450
N      -0.028271   -0.008623    0.134898
C      -1.156253   -0.878044   -0.130774
C      -0.562987   -2.274232    0.131506
N       0.870846   -2.049745   -0.044905
C       1.773372   -3.089812   -0.177043
O       2.966999   -2.999513   -0.280797
C       1.182474   -0.663596    0.029348
O       2.276267   -0.162176    0.014117
H       0.892757    1.831077    0.122787
H      -0.481396    1.710963   -1.005573
H      -0.780139    1.853653    0.743982
H      -1.999360   -0.661123    0.532374
H      -1.507434   -0.772193   -1.169225
H      -0.782515   -2.606196    1.153164
H      -0.939659   -3.025701   -0.565919
H       1.235471   -4.061489   -0.187151
