16

O      -0.006440   -0.096062   -0.017062
C      -0.022973    1.115522   -0.022640
C      -1.314450    1.946699    0.060039
C      -1.176356    3.211499   -0.777318
O      -1.889680    4.403711   -0.331987
C      -0.655553    5.177424   -0.285485
C       0.122824    3.904858   -0.486481
C       1.202766    3.257410   -0.068901
N       1.151421    1.851962   -0.063039
H      -2.144396    1.300113   -0.227388
H      -1.450887    2.237704    1.109264
H      -1.387981    3.016503   -1.838713
H      -0.610181    5.905608   -1.107102
H      -0.527986    5.703383    0.667701
H       2.108387    3.708918    0.319609
H       1.998313    1.303730   -0.051409
