15

C      -0.108762   -1.190542   -0.126574
C      -0.040620    0.006307   -0.041821
C       0.005053    1.448819    0.025292
C       0.141891    2.125789    1.432060
O       1.538009    1.644901    1.506707
C       1.404878    2.146727    0.122360
C       0.696281    3.371914    0.722611
O       0.032359    4.428609    0.099263
C       1.058133    4.722710    1.093151
H      -0.159091   -2.249231   -0.191898
H      -0.707020    1.927882   -0.653723
H      -0.489135    2.013107    2.311755
H       2.262688    2.058729   -0.541849
H       0.685644    5.153797    2.019938
H       1.963728    5.174988    0.694583
