15

O      -0.101920    0.003207    0.291093
C      -0.061903    1.215152    0.193330
C       1.174929    1.948599    0.063062
C       2.232738    2.513019   -0.035475
C      -1.326902    2.010915    0.183340
N      -1.377225    3.274568   -0.028219
C      -2.809499    3.624262    0.031062
C      -3.580699    2.272346    0.008902
N      -2.513975    1.351510    0.415109
H       3.161598    3.022188   -0.124120
H      -2.994056    4.174194    0.963260
H      -3.078015    4.287890   -0.794882
H      -4.422229    2.247614    0.705725
H      -3.957317    2.035027   -0.996027
H      -2.554580    0.366218    0.201324
