19

C       0.106549    1.515952   -0.148078
C       0.065748    0.028924    0.215630
O       0.662634   -0.205182    1.482355
C      -1.371324   -0.528327    0.152103
C      -1.640173   -2.062266   -0.008745
O      -0.460203   -2.792107    0.223509
C      -2.636601   -2.023243    1.198155
C      -2.137438   -0.599941    1.480500
O      -2.194384    0.133435    2.428412
H       1.127727    1.893113   -0.048829
H      -0.231491    1.686910   -1.175883
H      -0.541010    2.093716    0.521937
H       0.678447   -0.542199   -0.489716
H       0.139633    0.273598    2.137590
H      -1.963029    0.025522   -0.585979
H      -2.099922   -2.337238   -0.966032
H      -0.678298   -3.729372    0.229913
H      -3.693627   -2.054237    0.915137
H      -2.454009   -2.748433    1.995894
