16

O       0.056477    0.104376    0.104482
C      -0.021437    1.298117    0.051496
C      -1.228093    2.237864    0.163881
N      -0.563357    3.555107   -0.021237
C       0.665118    3.379510    0.915246
C       1.103574    2.326528   -0.193328
O       2.088204    1.843091   -1.146439
C       1.121397    2.273817   -2.202949
C       0.522406    3.272995   -1.149297
H      -1.966022    2.050509   -0.621671
H      -1.729440    2.190397    1.134260
H       1.268959    4.285148    0.931322
H       0.409088    3.045233    1.924084
H       1.637474    2.724705   -3.052450
H       0.499599    1.430072   -2.513925
H       1.068055    4.212675   -1.228279
