14

O       0.232269    1.450378    0.114911
C       0.094586    0.057949    0.134855
C      -1.400927   -0.401675    0.118296
C      -2.121548    0.212902   -1.104120
O      -1.524497    0.638962   -2.056034
C      -1.440807   -1.937320   -0.091238
O      -2.029029   -2.707060    0.608999
C      -2.118360   -0.017151    1.328566
N      -2.703810    0.315616    2.266633
H       0.031701    1.747015   -0.780457
H       0.598126   -0.421466   -0.714800
H       0.555169   -0.302194    1.058265
H      -3.226601    0.210309   -1.044794
H      -0.852432   -2.258396   -0.975845
