23

C       0.416832    1.008920    0.653834
C       0.157255   -0.499441    0.748039
C      -1.299360   -0.857715    0.496155
C      -1.820874   -0.926121   -0.969632
O      -0.982234   -2.132130   -1.169367
C      -1.664357   -2.324373    0.134086
C      -3.005626   -1.860518   -0.536085
C      -4.159446   -1.323599    0.310021
C      -3.548730   -2.781716   -1.627624
H       1.464939    1.242918    0.864090
H       0.187138    1.389529   -0.347360
H      -0.197910    1.567991    1.368639
H       0.785235   -1.036995    0.033055
H       0.436484   -0.852973    1.749490
H      -1.952700   -0.360001    1.215489
H      -1.794265   -0.168035   -1.755663
H      -1.445682   -3.246753    0.677321
H      -3.860847   -0.645057    1.109714
H      -4.872229   -0.789165   -0.328120
H      -4.704426   -2.156314    0.768882
H      -4.099777   -3.618509   -1.182995
H      -4.251476   -2.239144   -2.270403
H      -2.744521   -3.180041   -2.244881
