23

C       0.007626    1.581473   -0.007362
C       0.017562    0.050559    0.018178
C       0.694631   -0.529153   -1.238585
C       0.935241   -2.037785   -1.175522
C       2.180287   -2.581499   -0.517548
C       0.843823   -2.774709    0.147673
C       0.486642   -2.020327    1.407866
O       1.254565   -2.576154    2.474435
C       0.693376   -0.505426    1.279702
H       1.028250    1.981408    0.016143
H      -0.475687    1.960483   -0.914409
H      -0.529888    1.990891    0.854584
H      -1.026757   -0.296343    0.025325
H       0.078038   -0.297216   -2.114010
H       1.648277   -0.006595   -1.395488
H       0.582621   -2.590613   -2.040639
H       2.662593   -3.451794   -0.948850
H       2.871041   -1.867825   -0.080233
H       0.441164   -3.782597    0.117598
H      -0.586833   -2.192360    1.599932
H       0.982082   -2.139280    3.288370
H       1.768512   -0.283365    1.265472
H       0.287146   -0.016029    2.175217
