22

C      -0.085020    1.618073    0.197232
C       0.314328    0.159007   -0.034870
C       0.658690   -0.564294    1.259967
O       1.012765   -1.899250    0.955534
C       1.378486   -2.657480    2.074820
C       0.272375   -3.187042    3.035499
C       1.035616   -4.540409    3.067258
C       1.766475   -4.115787    1.763283
H       0.725321    2.184172    0.670016
H      -0.328421    2.114335   -0.746628
H      -0.963681    1.693303    0.847569
H      -0.499133   -0.383924   -0.529748
H       1.179635    0.102310   -0.705223
H       1.494883   -0.056587    1.772620
H      -0.201589   -0.539867    1.949932
H       2.170076   -2.142895    2.644001
H       0.104210   -2.664660    3.980141
H      -0.676166   -3.274670    2.497052
H       1.719740   -4.603399    3.917926
H       0.439900   -5.454436    3.035102
H       1.228750   -4.453630    0.872981
H       2.826635   -4.353688    1.653078
