14

N       0.052006    1.446695    0.127706
C       0.004168    0.029299   -0.003241
C      -1.327760   -0.658716    0.033590
N      -2.485489    0.188084    0.065031
C      -0.530397   -0.691030   -1.272183
C      -0.954106    0.093582   -2.389658
N      -1.270825    0.730619   -3.303206
H       0.755858    1.852689   -0.480037
H      -0.849924    1.839662   -0.126144
H       0.832936   -0.490387    0.469090
H      -1.366054   -1.620173    0.547951
H      -3.254111   -0.210592   -0.462781
H      -2.798695    0.335212    1.018380
H      -0.073122   -1.638888   -1.535637
