18

C      -0.112488    1.476715   -0.020635
C      -0.034765    0.024329   -0.017022
C       0.037504   -1.182188   -0.014009
C       0.114682   -2.588652   -0.010450
C       1.216043   -3.439203   -0.008428
C       2.651282   -3.012988   -0.009575
C       0.711301   -4.767112   -0.005033
C      -0.664633   -4.700207   -0.005130
N      -1.019573   -3.382687   -0.008099
H       0.889536    1.920004   -0.016622
H      -0.633922    1.852373   -0.908907
H      -0.642644    1.856163    0.860830
H       3.185097   -3.386026    0.872454
H       3.185053   -3.390692   -0.889642
H       2.730819   -1.922738   -0.012462
H       1.298317   -5.673379   -0.002747
H      -1.411267   -5.478167   -0.003104
H      -1.957300   -3.021852   -0.009479
