18

C       0.143543    1.652798   -0.000708
O       1.371375    1.956885   -0.658415
C       2.256028    0.824075   -0.512925
C       3.130345    1.017368    0.702414
C       2.737319    0.606341    1.904534
C       1.460336   -0.153349    2.134531
N       0.804296   -0.682687    0.937418
C       0.015141    0.133844    0.015046
C       1.346247   -0.398142   -0.385843
H       0.124585    2.084657    1.011922
H      -0.670448    2.107693   -0.574429
H       2.854358    0.778650   -1.427202
H       4.055154    1.571023    0.574525
H       3.345764    0.795543    2.785917
H       1.671318   -1.007183    2.793765
H       0.746344    0.470912    2.689472
H      -0.926362   -0.310611   -0.294929
H       1.500166   -1.244295   -1.049116
