22

C       2.159717    1.601210    0.781836
C       2.157016    0.069949    0.807864
C       0.791102   -0.513031    1.191286
C       0.714807   -2.049193    1.206948
C       1.425998   -2.655619    2.416827
O       1.478457   -4.067048    2.244975
C      -0.744813   -2.530082    1.155662
O      -1.427795   -2.113779   -0.020047
H       1.912238    2.014332    1.766179
H       3.138953    1.995447    0.492377
H       1.420804    1.984967    0.069683
H       2.445078   -0.312990   -0.180201
H       2.930483   -0.279083    1.503474
H       0.490640   -0.126346    2.176640
H       0.037323   -0.153925    0.481727
H       1.223253   -2.439428    0.311598
H       2.438611   -2.236476    2.509279
H       0.876363   -2.387581    3.335272
H       1.886783   -4.451466    3.025787
H      -0.776037   -3.620372    1.272433
H      -1.305050   -2.090473    1.990376
H      -1.033879   -2.580185   -0.764182
