16

O      -0.009817    1.292574   -0.156774
C       0.044463   -0.085047    0.030308
C      -0.478510   -0.702780    1.321901
C      -1.266860   -0.814380    0.058537
O      -2.442619   -0.021857   -0.155067
C      -2.902360   -0.945749   -1.178858
C      -1.774315   -1.950804   -0.824207
O      -0.942553   -2.446497   -1.833390
H      -0.940694    1.503878   -0.324367
H       0.908445   -0.547864   -0.440675
H       0.009473   -1.594310    1.703800
H      -0.858549   -0.017637    2.073115
H      -3.935160   -1.257914   -1.001552
H      -2.807774   -0.523351   -2.187323
H      -2.132377   -2.820026   -0.267615
H      -0.522615   -1.696025   -2.269801
