17

O       0.215094    1.323728    0.287474
C       0.142172    0.001062    0.022132
C       0.489260   -0.777583   -1.061008
C       0.137518   -2.098116   -0.662994
N      -0.380751   -2.123389    0.560935
N      -0.367784   -0.821001    0.961664
C       0.280114   -3.357018   -1.419688
C       0.085766   -3.387894   -2.922002
C       1.459515   -3.579436   -2.344453
H       0.597395    1.769418   -0.474578
H       0.925985   -0.444487   -1.988605
H      -0.714246   -0.565638    1.869958
H      -0.073256   -4.219154   -0.865111
H      -0.421680   -4.245911   -3.348873
H      -0.137615   -2.447322   -3.413839
H       2.174624   -2.769725   -2.441744
H       1.900537   -4.569700   -2.372567
