18

O      -0.075867    1.472069    0.028305
C       0.041334    0.059093   -0.007991
C      -1.370804   -0.514570   -0.014168
C      -1.388139   -2.041437   -0.002353
O      -0.793150   -2.594151    1.158694
C      -2.833736   -2.581558   -0.172893
O      -3.454304   -2.133500   -1.362291
C      -2.850856   -4.055006   -0.085165
N      -2.875657   -5.210024   -0.081069
H       0.808891    1.846669    0.067501
H       0.578995   -0.276810   -0.910150
H       0.593263   -0.325801    0.861567
H      -1.910606   -0.136351    0.866067
H      -1.912133   -0.151069   -0.892364
H      -0.789923   -2.429012   -0.837835
H      -1.196654   -2.182306    1.931822
H      -3.448316   -2.185764    0.645642
H      -3.044927   -2.586930   -2.108565
