20

C       0.498130    0.773455   -0.803022
C      -0.182779   -0.261376    0.099221
C       0.593725   -0.464125    1.405426
C      -1.647937    0.133882    0.413631
C      -2.503402    0.210396   -0.764874
C      -3.191410    0.259290   -1.750528
C      -4.034633    0.325744   -2.941716
C      -3.317200    0.818734   -4.125954
N      -2.762243    1.204185   -5.062236
H       1.517611    0.462232   -1.051420
H      -0.051578    0.911743   -1.738048
H       0.560753    1.746916   -0.301453
H      -0.214307   -1.218445   -0.437249
H       0.635866    0.465647    1.985484
H       0.130365   -1.230763    2.035651
H       1.623620   -0.773828    1.202886
H      -2.074487   -0.591805    1.118143
H      -1.654263    1.102335    0.933033
H      -4.447720   -0.662604   -3.182026
H      -4.897451    0.982358   -2.769397
