14

O       0.097618    1.319625   -0.500045
C      -0.028834    0.057911    0.138033
C      -1.418437   -0.497735    0.036707
N      -2.158456   -0.700014    1.118745
N      -3.335770   -1.169494    0.654585
C      -3.380272   -1.269976   -0.687722
C      -2.145375   -0.838797   -1.144054
C      -1.712365   -0.767584   -2.489168
N      -1.360467   -0.720701   -3.591366
H      -0.496458    1.933438   -0.055072
H       0.678997   -0.599356   -0.376550
H       0.250389    0.094161    1.199481
H      -4.062181   -1.400730    1.311999
H      -4.247891   -1.628401   -1.217673
