15

N      -0.073107   -1.099356    0.495821
C      -0.040260    0.015440    0.194633
C       0.015072    1.433232   -0.178750
C       1.409716    1.995520   -0.122437
C       2.096994    2.569715   -1.103576
C       3.437332    3.014449   -0.594584
O       3.456548    2.645707    0.782321
C       2.238827    2.003105    1.137517
H      -0.401875    1.547422   -1.184289
H      -0.647675    1.982442    0.504168
H       1.770934    2.710580   -2.126695
H       4.268522    2.525613   -1.126905
H       3.584999    4.101415   -0.693635
H       1.745001    2.553960    1.955072
H       2.438587    0.985672    1.508045
