16

C      -0.029476    1.510407    0.020986
N       1.287149    2.162226   -0.101223
C       2.227431    1.436568   -0.856481
C       3.381270    1.829033   -1.455597
O       3.985054    0.753205   -2.052184
C       3.192872   -0.327846   -1.835202
C       2.099798    0.019611   -1.100982
C       0.980830   -0.704189   -0.534530
C      -0.010501   -0.005297    0.034008
H      -0.508868    1.893180    0.927347
H      -0.665187    1.845194   -0.815059
H       1.654223    2.426311    0.803729
H       3.903390    2.767280   -1.533163
H       3.536746   -1.255665   -2.262671
H       0.970538   -1.789374   -0.555491
H      -0.864749   -0.507653    0.478068
