22

C       0.027267    1.554701    0.006282
C       0.042210    0.025304    0.027653
C      -1.359263   -0.516769   -0.274167
C       1.090937   -0.718901   -0.809632
C       1.260834   -1.776019    0.208352
N       2.391825   -0.843247   -0.059725
C       2.135922   -0.191820    1.265866
C       0.692606   -0.726507    1.256074
C      -0.072702   -0.981434    2.528155
H       1.024695    1.990828    0.086937
H      -0.409553    1.915631   -0.931910
H      -0.586179    1.953647    0.823022
H      -1.685645   -0.213286   -1.275212
H      -1.389623   -1.609942   -0.232227
H      -2.093199   -0.127919    0.440447
H       1.158308   -0.792593   -1.888530
H       1.334163   -2.854910    0.163432
H       2.758683   -0.694340    2.012338
H       2.313604    0.887645    1.316363
H      -0.299292   -0.038687    3.040919
H      -1.022234   -1.493127    2.342445
H       0.509718   -1.599542    3.220130
