21

C      -0.506923    1.524102    0.154632
C      -0.033296    0.080890   -0.030796
C      -1.180322   -0.917722    0.138670
C       0.882806   -0.163584   -1.290048
C       2.059580   -0.494685   -0.357689
C       3.125922   -1.563773   -0.470483
C       3.523873   -0.123393   -0.461152
C       1.198248   -0.264595    0.845833
O       1.381957   -0.322940    2.031612
H       0.314062    2.237385    0.028072
H      -1.285233    1.772108   -0.575774
H      -0.921724    1.665389    1.157706
H      -1.973392   -0.722731   -0.591935
H      -0.840585   -1.949366    0.000488
H      -1.612111   -0.838751    1.141417
H       0.554954   -0.991228   -1.924554
H       1.028191    0.722932   -1.912973
H       3.313422   -2.156755    0.418567
H       3.176279   -2.108058   -1.407689
H       3.849630    0.329078   -1.391897
H       3.986229    0.278478    0.434348
