17

C       0.032435    1.565830    0.083790
C      -0.010767    0.037085   -0.090743
C      -1.406702   -0.521700   -0.053950
C      -2.051559   -1.017112   -1.148441
N      -3.327931   -1.528655   -1.168069
C      -3.944231   -1.534126   -0.030250
N      -3.400024   -1.076144    1.124839
C      -2.102163   -0.533414    1.226074
O      -1.680095   -0.144782    2.301383
H       1.066065    1.924158    0.062184
H      -0.518584    2.068519   -0.717494
H      -0.409595    1.850921    1.041091
H       0.462562   -0.245333   -1.037439
H       0.570730   -0.424399    0.715706
H      -1.544578   -1.027517   -2.110706
H      -4.957634   -1.921380    0.040042
H      -3.923457   -1.106326    1.990444
