23

C      -0.130108    1.598797    0.149929
C      -0.022788    0.073314    0.069075
C      -1.388420   -0.609282   -0.078005
O      -2.046901   -0.206023   -1.278908
C      -1.350347   -2.145804    0.037829
C      -0.467702   -2.819707   -1.008252
C      -1.177406   -2.633458    1.500431
O      -2.567109   -2.993216    1.597569
C      -2.777256   -2.729985    0.193660
H       0.858907    2.064545    0.191686
H      -0.661320    1.993591   -0.720258
H      -0.683622    1.906691    1.043595
H       0.612012   -0.205952   -0.783372
H       0.481525   -0.315414    0.962500
H      -2.045925   -0.243526    0.722002
H      -1.450387   -0.379235   -2.015211
H       0.584975   -2.539144   -0.899932
H      -0.528917   -3.908729   -0.920702
H      -0.784533   -2.560957   -2.025486
H      -0.515801   -3.503335    1.615863
H      -0.895995   -1.876070    2.243552
H      -3.602875   -2.032766    0.016738
H      -2.959612   -3.654204   -0.371516
