19

C       0.313602    1.437241    0.377767
C       0.004848   -0.015776    0.008186
C       0.662258   -0.430851   -1.303031
O       0.470082   -0.939677    0.993485
C      -0.261644   -0.963732    2.177390
C       0.355296   -1.703580    3.319337
C       0.216067   -0.195077    3.386485
H       1.393382    1.578597    0.493168
H      -0.039631    2.111270   -0.409478
H      -0.173580    1.724056    1.312691
H      -1.088347   -0.130704   -0.087268
H       1.750563   -0.339837   -1.226851
H       0.422380   -1.471047   -1.538047
H       0.319225    0.203607   -2.125640
H      -1.339410   -1.055040    2.031774
H      -0.280479   -2.320627    3.944098
H       1.350268   -2.099682    3.150776
H       1.123583    0.385640    3.269131
H      -0.518750    0.235218    4.058873
