23

C       0.004639    1.511854    0.096428
C       0.206791    0.010040   -0.021548
O       0.573724   -0.491924    1.247788
C       0.693643   -1.901239    1.307114
C       1.955078   -2.460223    0.594271
C       2.339228   -3.732575    1.379704
C       1.833275   -3.483798    2.795972
C       2.149535   -2.151016    3.424247
C       0.818230   -2.363434    2.745946
H       0.926926    1.997152    0.428511
H      -0.283085    1.937003   -0.869958
H      -0.779916    1.736531    0.824553
H      -0.720677   -0.478156   -0.368319
H       0.984039   -0.211515   -0.770838
H      -0.211410   -2.354807    0.866597
H       1.789276   -2.661038   -0.466907
H       2.743809   -1.703541    0.659108
H       1.826807   -4.607762    0.962659
H       3.414148   -3.940446    1.333911
H       1.687057   -4.337009    3.449278
H       2.140022   -2.100892    4.507408
H       2.880283   -1.497013    2.961043
H      -0.078694   -2.376781    3.354225
