15

O       0.151580    0.393987    1.052050
C       0.011170    1.222157    0.188319
C      -1.334446    1.908020   -0.092271
N      -1.330727    2.865709   -1.190766
C      -0.236580    3.825102   -1.111508
C       1.154859    3.219255   -0.873454
O       2.153561    3.889866   -0.806438
C       1.159827    1.700789   -0.699174
H      -2.089758    1.136268   -0.269907
H      -1.631564    2.416134    0.835948
H      -1.318967    2.384809   -2.082628
H      -0.202636    4.431508   -2.021877
H      -0.423099    4.526369   -0.285988
H       2.121387    1.348696   -0.325678
H       0.990620    1.266879   -1.697583
