18

O       0.004119   -0.053945    0.094303
C      -0.009764    1.139455    0.065156
C      -1.088786    2.244025   -0.029281
C      -0.814975    3.003852    1.293070
C       0.759724    3.040125    1.267659
C       1.028238    2.276620   -0.051667
C      -0.049181    2.903140   -0.966288
C      -0.086132    3.063737   -2.425709
N      -0.018488    4.244513   -1.517789
H      -2.117040    2.041390   -0.322541
H      -1.249643    4.006691    1.280692
H      -1.212744    2.472943    2.161452
H       1.143295    4.060910    1.209871
H       1.207544    2.547633    2.133926
H       2.055160    2.111683   -0.368203
H       0.808430    2.901801   -3.020624
H      -1.019661    2.864141   -2.945821
H      -0.936205    4.680253   -1.450379
