15

C      -0.212723    1.190109   -0.420773
C       1.204267    1.120576    0.065623
N       0.315399   -0.015288    0.185903
C      -0.120859   -0.504114    1.398519
N      -1.435499   -0.757212    1.523674
C      -1.778277   -1.323595    2.668645
C      -0.825145   -1.613895    3.644976
N       0.456770   -1.301497    3.465659
N       0.824937   -0.733534    2.328721
H      -0.922573    1.771174    0.161939
H      -0.431672    1.124485   -1.482118
H       2.019141    1.005690   -0.642462
H       1.456929    1.651056    0.979287
H      -2.832679   -1.545349    2.820622
H      -1.081764   -2.083181    4.588072
