16

C       0.003869    1.568505    0.022879
C       1.539715    1.532723    0.049846
O       1.970704    0.821957   -1.132070
C       1.562746    0.061051   -0.004899
C       2.348265   -1.031187    0.634122
N       1.605989   -1.622658    1.747879
C       0.381153   -1.354403    1.907668
O      -0.471346   -0.570457    1.191106
C       0.030331    0.006716   -0.017700
H      -0.445242    1.920546    0.953565
H      -0.442423    2.078999   -0.832818
H       2.243483    2.235894    0.479198
H       2.565030   -1.821671   -0.097492
H       3.317215   -0.676448    1.001602
H      -0.163521   -1.784064    2.746393
H      -0.446474   -0.488587   -0.867610
