19

C      -0.125149    1.480804    0.031337
C      -0.011294   -0.006379   -0.051342
C       0.050703   -0.780706   -1.134064
C       0.132291   -2.250635   -0.808515
C       0.452139   -2.251037    0.702037
C       0.025439   -0.853696    1.225750
O       1.018279   -0.405345    2.157772
C      -1.294531   -0.857068    1.870254
C      -2.371228   -0.819096    2.406088
H       0.715531    1.902098    0.595068
H      -0.135552    1.938868   -0.960787
H      -1.043621    1.775521    0.554668
H       0.018849   -0.409520   -2.153681
H      -0.821197   -2.753055   -1.020821
H       0.893898   -2.775500   -1.395996
H      -0.020929   -3.063895    1.255023
H       1.531837   -2.313612    0.862303
H       0.610289    0.250588    2.732510
H      -3.323647   -0.801249    2.875998
