16

C      -0.083040    1.567342   -0.088225
C       0.001641    0.051141   -0.040628
C       0.701675   -0.659179   -1.209273
O       2.042159   -0.161051   -1.257539
C       1.757568   -1.214077   -0.347258
C       1.132683   -0.577583    0.910410
O       2.006626    0.283444    1.585084
C       0.566492   -1.590922    1.810704
N       0.114008   -2.369606    2.535906
H       0.892783    1.997457   -0.319930
H      -0.798123    1.884508   -0.854143
H      -0.423864    1.973944    0.869672
H      -0.966412   -0.404636    0.183369
H       0.277799   -1.052557   -2.124907
H       2.346190   -2.121319   -0.403250
H       1.554001    0.651292    2.352748
