17

C       0.020983    1.559253    0.034268
C       0.031335    0.029646    0.013142
C       0.786021   -0.577377   -1.200766
C       1.328126   -1.948636   -0.730743
C       1.503851   -1.770241    0.764498
O       2.164076   -0.545929    1.123970
C       0.730505   -0.604984    1.204683
H       1.043535    1.944078    0.103192
H      -0.434292    1.964340   -0.875383
H      -0.544064    1.944777    0.889645
H      -1.005411   -0.337217    0.019011
H       0.147708   -0.658399   -2.084174
H       1.622931    0.075640   -1.461654
H       0.600312   -2.751169   -0.905008
H       2.255169   -2.232444   -1.238675
H       1.715895   -2.617854    1.411827
H       0.318718   -0.511015    2.207499
