19

C      -0.045216    1.436938   -0.316675
C       1.441485    1.662232    0.149028
C       1.266813    0.354553    0.917109
C       1.835198   -0.900837    1.676149
C       1.435377   -0.277598    3.024868
C       0.305050    0.344679    2.188563
C      -0.353790   -0.792733    1.336587
O       0.712335   -1.787111    1.428358
C       0.081275   -0.091854    0.038154
H      -0.770293    1.986894    0.285599
H      -0.246992    1.634634   -1.370434
H       2.137178    1.576234   -0.691807
H       1.676615    2.566067    0.717686
H       2.774268   -1.411677    1.474013
H       1.197455   -0.967918    3.837417
H       2.135621    0.494260    3.357576
H      -0.284917    1.200914    2.505987
H      -1.312010   -1.272614    1.538286
H       0.233900   -0.737193   -0.829345
