20

C       0.029337    1.510064   -0.044739
C       0.036834    0.002500   -0.015144
C       0.442123   -0.774176   -1.258302
O       0.316851   -2.134166   -0.817662
C      -0.112629   -1.994760    0.523703
C      -0.303850   -3.338248    1.170337
C       0.621381   -0.789176    1.207041
N      -0.601756   -0.411830    2.001230
C      -1.131124   -0.808902    0.647959
H       1.025807    1.905073   -0.273019
H      -0.658335    1.886152   -0.810743
H      -0.284969    1.899705    0.925994
H      -0.222402   -0.591411   -2.112730
H       1.474742   -0.572361   -1.571370
H       0.634033   -3.901409    1.160271
H      -0.634432   -3.238884    2.208223
H      -1.053127   -3.919304    0.624589
H       1.630769   -0.736035    1.620931
H      -0.812140   -1.142480    2.686462
H      -2.194569   -0.779094    0.400591
