16

C       0.079712    1.546767   -0.122819
C      -0.035510    0.022624   -0.002467
C       0.672724   -0.521962    1.254676
C      -1.461939   -0.416759   -0.021313
N      -2.503359    0.331317   -0.029544
O      -3.595670   -0.578418   -0.039498
C      -3.118516   -1.847065   -0.037114
O      -3.742141   -2.854422   -0.043983
O      -1.737276   -1.747306   -0.025559
H       1.134556    1.831765   -0.153125
H      -0.406636    1.915459   -1.028823
H      -0.386273    2.042639    0.733110
H       0.433817   -0.443734   -0.879758
H       0.247157   -0.079057    2.160612
H       0.582479   -1.608430    1.326159
H       1.734879   -0.266103    1.216918
