23

C       0.100204    1.537150   -0.001406
C      -0.001335    0.043868   -0.045786
C      -1.098759   -0.720446    0.017073
C      -2.531642   -0.296104    0.112204
C      -0.748250   -2.209150   -0.005716
C      -0.924492   -2.858778    1.375187
O      -1.511811   -2.936044   -0.977496
C       0.722375   -2.205148   -0.475150
C       1.255206   -0.798154   -0.141774
H       0.706079    1.863772    0.854209
H       0.602117    1.921948   -0.898668
H      -0.874208    2.025339    0.075196
H      -2.650557    0.788502    0.061885
H      -3.113313   -0.734541   -0.707874
H      -2.995829   -0.634200    1.048402
H      -1.957010   -2.763686    1.733099
H      -0.678141   -3.924098    1.322158
H      -0.274675   -2.386109    2.118182
H      -2.368171   -3.143967   -0.590103
H       1.308540   -3.013270   -0.029091
H       0.713411   -2.358063   -1.557704
H       1.952560   -0.419427   -0.899291
H       1.806918   -0.782377    0.809825
