19

C      -0.279554    1.435735   -0.163461
C       0.207921    0.002955   -0.130335
O       1.506634   -0.154017   -0.748095
C       2.039017   -0.784548    0.427593
C       0.723341   -0.587955    1.213347
C       0.659803    0.129816    2.591016
C       0.001106   -1.128013    3.240971
C       0.022649   -1.790140    1.854044
O      -0.369239   -2.832398    1.413118
H       0.424547    2.107363    0.336321
H      -0.382864    1.761724   -1.203180
H      -1.258813    1.525943    0.319156
H      -0.522328   -0.666693   -0.605488
H       2.309329   -1.832939    0.248791
H       2.904934   -0.245990    0.833094
H       1.635918    0.398016    3.001106
H       0.024686    1.017812    2.601919
H       0.613089   -1.652394    3.981082
H      -1.000014   -0.993805    3.660555
