16

O      -0.045008    1.457495   -0.005345
C       0.030345    0.046306   -0.008091
C       0.634290   -0.567941    1.286215
N      -0.217058   -1.716641    1.665554
C      -1.213011   -1.944386    0.646840
C      -1.623463   -1.417192    2.017794
C      -2.125972   -0.178544    1.323925
O      -2.975418    0.620109    1.596037
C      -1.384583   -0.541281    0.005607
H       0.845241    1.811515   -0.093173
H       0.574931   -0.310951   -0.896070
H       1.651756   -0.941190    1.136736
H       0.648368    0.178175    2.085791
H      -1.401714   -2.921044    0.220615
H      -2.050434   -1.923588    2.876134
H      -1.961904   -0.408036   -0.907532
