20

C       0.132919    1.093088   -0.513250
O      -0.172738    0.176311    0.517141
C      -1.376347   -0.491111    0.311584
C      -1.408689   -1.697712   -0.596662
C      -1.514375   -1.856321    0.912894
C      -0.380770   -2.479121    1.699283
C      -0.416507   -4.002587    1.660737
O       0.663278   -4.483669    2.447682
H       1.087435    1.559028   -0.257523
H       0.223504    0.593123   -1.488329
H      -0.634667    1.877621   -0.597924
H      -2.251099    0.162211    0.317359
H      -2.280978   -1.874441   -1.216564
H      -0.463771   -1.983699   -1.048130
H      -2.507223   -2.089617    1.291133
H       0.580098   -2.131285    1.310356
H      -0.427591   -2.156336    2.746326
H      -1.383689   -4.363170    2.049496
H      -0.338233   -4.348130    0.617429
H       0.649906   -5.444599    2.420618
