16

C       0.018691    1.515403    0.008401
C       0.036875   -0.000962    0.002923
O       1.079630   -0.619201   -0.007267
C      -1.277964   -0.734361    0.010392
C      -2.518819   -0.094833    0.021747
C      -3.674789   -0.872414    0.027819
N      -3.670950   -2.206689    0.023441
C      -2.478019   -2.812563    0.012562
C      -1.267579   -2.131301    0.005738
H       1.045714    1.880271    0.002357
H      -0.512429    1.901529   -0.868287
H      -0.499970    1.895431    0.895142
H      -2.600401    0.985769    0.025885
H      -4.652073   -0.395579    0.036645
H      -2.494988   -3.899662    0.009154
H      -0.319572   -2.655268   -0.003079
