19

C       0.200228    1.261293   -0.371182
C       1.470311    1.885302    0.264824
C       2.090988    0.723478    1.026185
C       2.320528   -0.558348    0.244152
C       3.029013   -1.714589    0.951961
C       2.084357   -2.101781    2.077001
C       0.970039   -1.366398    2.078782
C       1.018116   -0.338925    1.014259
O      -0.155800    0.130095    0.424893
H      -0.656135    1.940186   -0.395290
H       0.406403    0.937369   -1.400621
H       2.120636    2.324957   -0.498249
H       1.204471    2.676595    0.973058
H       2.674907    0.927626    1.918317
H       2.364230   -0.502643   -0.838161
H       3.203307   -2.556039    0.268971
H       4.015813   -1.426110    1.338924
H       2.333823   -2.861805    2.808341
H       0.144302   -1.442856    2.775370
