23

C      -0.056214    1.505196   -0.257089
C       1.447476    1.641320    0.106901
C       1.410696    0.218696    0.738945
C       1.388872    0.192694    2.269582
C       1.173238   -1.186735    2.855471
C       0.300503   -2.119746    2.468063
C      -0.751318   -2.058764    1.387383
C      -1.095388   -0.658817    0.857490
C       0.025620   -0.018073    0.049491
H      -0.707937    2.030533    0.448308
H      -0.351643    1.794072   -1.268817
H       2.091716    1.691633   -0.774929
H       1.720994    2.462862    0.775491
H       2.200956   -0.455623    0.395567
H       2.345132    0.585373    2.636270
H       0.629365    0.893143    2.645800
H       1.828050   -1.442533    3.686383
H       0.325249   -3.068428    3.003545
H      -0.448363   -2.706532    0.549402
H      -1.664065   -2.524873    1.783276
H      -1.995016   -0.723815    0.231867
H      -1.363490   -0.014259    1.703885
H       0.169458   -0.587600   -0.876410
