15

O      -0.138879   -0.091682   -0.182319
C      -0.063522    1.109078   -0.218852
C       1.149318    1.923184    0.128476
C       1.472000    2.858990    1.240924
C       1.100291    2.444598    2.672534
C       0.350713    1.148484    2.724637
C       1.815653    1.141299    2.387080
N       2.273547    1.597025    1.007880
H      -0.893088    1.731712   -0.628464
H       1.539070    2.314776   -0.818643
H       1.911857    3.829029    1.028361
H       1.201439    3.120912    3.510113
H       0.165616    0.795585    3.735639
H      -0.440209    0.891913    2.034458
H       2.547372    0.594310    2.965744
