16

C      -0.027537    1.493897    0.084157
O       1.328314    1.933971   -0.086640
C       2.018661    0.888286   -0.745917
C       3.453428    0.534644   -0.303999
C       3.423027   -0.984502   -0.404120
C       2.170893   -1.476264   -0.469186
C       1.234866   -0.364455   -0.426406
C       0.028946   -0.021659    0.023707
H      -0.394880    1.867704    1.048168
H      -0.672136    1.924933   -0.702371
H       2.023688    1.065823   -1.837087
H       4.233850    0.995406   -0.916373
H       3.618855    0.849915    0.735346
H       4.323182   -1.588068   -0.362090
H       1.903989   -2.525636   -0.474901
H      -0.770860   -0.661316    0.372528
