18

C      -0.015152    1.539959   -0.049205
N       0.139506    0.092220    0.102583
C       0.573738   -0.587536   -1.102138
C       1.004690   -2.042479   -0.842051
N       0.659126   -2.724300   -2.085163
C      -0.345203   -2.113050   -2.804652
N      -1.026857   -2.502049   -3.807040
C      -0.528595   -0.741585   -2.163580
O      -1.384367    0.052390   -2.440894
H       0.899250    2.045546   -0.407779
H      -0.816843    1.743546   -0.760041
H      -0.289910    1.970586    0.917463
H       0.813331   -0.093506    0.838745
H       1.405842   -0.069712   -1.624652
H       2.075079   -2.133712   -0.633956
H       0.446419   -2.433429    0.020636
H       0.834620   -3.710989   -2.190414
H      -0.780018   -3.454963   -4.085629
