21

C      -0.272702    1.433301    0.253001
C       0.075404   -0.034813   -0.018510
C       0.747135   -0.212972   -1.389995
O      -0.068568    0.236836   -2.463412
C       0.969971   -0.585631    1.087814
O       0.393576   -0.430049    2.411392
C       0.404016   -1.849830    2.650043
C       1.056443   -2.122309    1.277603
O       0.294256   -2.846901    0.338029
H       0.634786    2.048243    0.295098
H      -0.901997    1.823902   -0.549909
H      -0.795824    1.537938    1.206088
H      -0.849035   -0.627593   -0.021878
H       1.657244    0.397588   -1.439861
H       1.038085   -1.262776   -1.529044
H      -0.837283   -0.341379   -2.501510
H       1.954453   -0.096393    1.047873
H       0.996150   -2.115605    3.534671
H      -0.607268   -2.265523    2.745628
H       2.082311   -2.505027    1.333944
H       0.412451   -3.786352    0.507749
