15

C      -0.068662    1.546402    0.078714
C       0.145911    0.072595   -0.001977
O      -0.779224   -0.804568    0.642750
C       0.606230   -0.950705    0.962861
C       1.256680   -1.779672   -0.181258
O       0.397026   -2.794286   -0.772077
C      -0.097031   -1.900973   -1.708173
O      -0.881227   -2.117160   -2.570067
C       0.764432   -0.733283   -1.195078
H       0.842328    2.088143   -0.193684
H      -0.865349    1.856088   -0.606320
H      -0.359511    1.829931    1.093451
H       0.888524   -0.891821    2.007587
H       2.289105   -2.104367   -0.074640
H       1.414385   -0.210504   -1.892447
