19

C       0.129087    1.545220    0.017181
C      -0.049009    0.032329   -0.064159
C      -1.475255   -0.430358    0.185219
O      -2.370219    0.344451    0.452499
C      -1.703829   -1.910407    0.091543
C      -2.886525   -2.509824    0.794012
C      -2.897121   -2.476457   -0.712312
C      -3.856832   -1.594498   -1.430699
O      -4.327247   -1.885366   -2.504624
H       1.171984    1.820887   -0.161017
H      -0.494765    2.051292   -0.723812
H      -0.166503    1.919811    1.000274
H       0.258380   -0.357741   -1.045001
H       0.597293   -0.486312    0.658808
H      -0.805958   -2.513908    0.011428
H      -2.769802   -3.471066    1.279791
H      -3.530809   -1.798195    1.300145
H      -2.690470   -3.400220   -1.242279
H      -4.127267   -0.658537   -0.906261
