19

C      -0.294335    1.548686    0.058124
C       0.083650    0.087794   -0.039141
C       0.278844   -0.454330   -1.263945
C       0.572441   -1.841184   -1.668316
O       0.709973   -2.096460   -2.852819
C       0.664756   -2.958109   -0.637201
C       1.525472   -2.624255    0.590754
C       0.843028   -1.709898    1.566861
C       0.203321   -0.571878    1.263300
H       0.436816    2.101362    0.660313
H      -0.361405    2.019296   -0.924224
H      -1.262225    1.660682    0.562482
H       0.178317    0.194308   -2.130359
H      -0.354108   -3.205020   -0.308575
H       1.057787   -3.830646   -1.164645
H       1.798348   -3.554236    1.098296
H       2.472616   -2.170946    0.260051
H       0.879826   -1.999731    2.614191
H      -0.231363   -0.011122    2.088237
