18

C      -0.018354    1.581706   -0.045999
C      -0.067414    0.083493    0.031819
O       0.961127   -0.610558   -0.840304
C       0.610941   -1.760810    0.074470
C       1.143524   -2.807594    1.090128
N       0.424131   -1.980279    2.179237
C       0.591946   -0.802740    1.198051
C      -0.872491   -1.960307   -0.288559
C      -1.327871   -0.708923   -0.312520
H       0.967789    1.952426    0.243844
H      -0.226727    1.919035   -1.066295
H      -0.768126    2.018153    0.621454
H       0.799389   -3.841620    0.990545
H       2.218851   -2.776482    1.271333
H      -0.551807   -2.282167    2.175169
H       1.571025   -0.373141    1.420772
H      -1.364093   -2.903807   -0.481124
H      -2.305537   -0.302984   -0.529133
