19

C      -0.054173    1.520975    0.016943
C      -0.071417    0.020934    0.046538
C      -0.388793   -0.813795   -1.264027
C       0.604284   -1.892814   -1.371575
C       0.719167   -2.477957   -0.154660
C       1.842082   -1.886807    0.713379
C       0.672925   -0.882348    1.100847
C      -0.397594   -1.961352    0.782099
C      -1.231943   -0.958131   -0.021468
H       0.933028    1.904458   -0.269109
H      -0.779787    1.906271   -0.707282
H      -0.306881    1.952711    0.992732
H      -0.762917   -0.231198   -2.099828
H       1.442380   -1.804322   -2.057639
H       2.136029   -2.453331    1.604894
H       2.728584   -1.518229    0.193340
H       0.710405   -0.421762    2.091642
H      -0.811271   -2.616570    1.545587
H      -2.300047   -0.786889    0.009874
