19

C      -0.022348    1.658283    0.013307
C      -0.045606    0.120920    0.019652
C       0.848804   -0.451198    1.132120
O      -1.371265   -0.411169    0.048822
C      -2.154335   -0.126689    1.195607
C      -3.464017   -0.748428    1.044804
C      -4.550929   -1.249178    0.948313
C       0.487652   -0.376953   -1.331433
O       1.590257   -0.130611   -1.742655
H       0.981207    1.998589   -0.253318
H      -0.730695    2.050592   -0.722240
H      -0.273324    2.068401    0.995697
H       0.591975   -0.032944    2.109560
H       0.753961   -1.539957    1.180439
H       1.890433   -0.201217    0.916287
H      -1.675197   -0.509384    2.109190
H      -2.282024    0.957801    1.330785
H      -5.510941   -1.694210    0.857710
H      -0.243318   -0.991057   -1.898969
