19

C      -0.402771    1.472738    0.035320
C      -0.050523   -0.005532    0.068841
C       0.397044   -0.543737   -1.307072
C       1.287370   -1.757329   -1.139420
O       2.105334   -2.123837   -1.954099
C       1.117077   -2.522285    0.166294
O       2.048844   -3.559253    0.269307
C       1.224321   -1.531443    1.361983
O       1.020430   -0.177305    0.990960
H       0.475160    2.061054   -0.248567
H      -1.198975    1.662995   -0.690828
H      -0.738587    1.807749    1.019793
H      -0.926660   -0.576822    0.419929
H      -0.468128   -0.820551   -1.923469
H       0.961252    0.210575   -1.864716
H       0.093271   -2.937275    0.143449
H       2.545634   -3.533798   -0.565818
H       0.515956   -1.820536    2.152619
H       2.239407   -1.604345    1.758598
