22

C       0.899409    1.412249   -0.523478
C       0.205000    0.145980    0.001657
C       0.107025   -1.009320   -1.040104
N       1.030391   -2.100516   -0.669645
C       2.425438   -1.671134   -0.501930
C       1.531553   -1.797774    0.680441
C       0.864158   -0.548299    1.239033
C       1.796689    0.308341    2.086521
O       1.027279    1.350704    2.675974
H       1.920133    1.234282   -0.875800
H       0.335454    1.818909   -1.369638
H       0.938145    2.177294    0.256306
H      -0.806458    0.450339    0.285383
H      -0.901098   -1.437202   -1.043405
H       0.319865   -0.670209   -2.059922
H       3.160546   -2.445390   -0.704695
H       2.716987   -0.681552   -0.839485
H       1.654171   -2.645730    1.350083
H       0.059938   -0.879404    1.907866
H       2.260087   -0.322494    2.861662
H       2.611302    0.714204    1.469050
H       1.613932    1.890054    3.214359
