19

C      -0.038670    1.410714    0.104978
N      -0.058166   -0.026519   -0.075039
C       0.604459   -0.620858   -1.102186
C       1.213622   -0.067691   -2.174746
C       1.731490   -1.137688   -3.043294
O       2.404611   -1.057102   -4.050358
N       1.288599   -2.337541   -2.475433
C       0.686932   -2.139958   -1.172266
C       1.506959   -2.753753   -0.026919
H       0.976811    1.801329    0.262065
H      -0.457776    1.903612   -0.778818
H      -0.654693    1.674526    0.966755
H      -0.239776   -0.586557    0.741206
H       1.339161    0.978078   -2.406858
H       1.777382   -3.188663   -2.703305
H      -0.330962   -2.557731   -1.142769
H       2.516289   -2.332721   -0.012492
H       1.037404   -2.569243    0.945774
H       1.582007   -3.838867   -0.149177
