15

C      -0.053514    1.646531    0.064731
C       1.441611    1.951101   -0.026781
C       2.087218    0.812014    0.298013
C       2.363271   -0.263183   -0.717418
C       1.674864   -1.311811    0.050680
C       1.164085   -0.224943    1.024466
C       0.024234    0.087102    0.064223
N       0.865375   -0.650329   -1.028691
H      -0.603034    1.977778    0.957637
H      -0.556834    2.089920   -0.801835
H       1.818994    2.663452   -0.753900
H       3.021729   -0.317015   -1.574515
H       1.810964   -2.382813    0.124492
H       1.097196   -0.258058    2.110929
H      -0.927279   -0.445639    0.138389
