25

C      -0.250258    1.501109    0.212779
C       0.091604    0.013885    0.056099
C       0.761445   -0.416098   -1.262565
C       0.285005    0.294911   -2.559478
O       1.624585    0.726737   -2.870581
C       2.113034    0.273297   -1.593363
C       0.781193   -1.964677   -1.393458
C       1.473334   -2.487709   -2.665293
C       1.404664   -2.657819   -0.169058
H       0.614614    2.146557    0.029360
H      -1.047588    1.816395   -0.466343
H      -0.595826    1.699090    1.232198
H       0.754236   -0.273466    0.880600
H      -0.825783   -0.574792    0.193506
H      -0.139205   -0.342951   -3.343450
H      -0.386581    1.147868   -2.408186
H       2.373218    1.112926   -0.934944
H       2.993077   -0.372220   -1.694178
H      -0.274980   -2.269820   -1.446656
H       1.291030   -3.562226   -2.767004
H       1.120483   -2.003591   -3.578222
H       2.558374   -2.349155   -2.617039
H       0.838598   -2.483579    0.748736
H       1.447460   -3.740071   -0.327817
H       2.432542   -2.313176   -0.001972
