18

C      -0.009162    1.495365    0.091511
C      -0.044514    0.002200    0.063265
C       0.169300   -1.005335    1.128974
C      -0.412193   -2.073712    0.129482
C       0.993997   -2.082791   -0.483320
N       1.261832   -0.744596    0.140134
C      -1.085754   -0.894669   -0.649029
C      -2.445739   -0.607459   -0.236059
C      -3.571205   -0.361072    0.109479
H       0.751138    1.845332    0.794558
H       0.235795    1.898845   -0.897379
H      -0.981565    1.895849    0.393994
H       0.288069   -0.944392    2.202606
H      -0.982423   -2.971066    0.358239
H       1.663883   -2.815289   -0.025820
H       1.088461   -2.124009   -1.575264
H      -1.022210   -0.955826   -1.743146
H      -4.567578   -0.148870    0.409053
