17

N      -0.142236    1.423657    0.065951
C      -0.034114    0.021946    0.027359
C      -1.065113   -0.894248   -0.006931
N      -0.514385   -2.163995    0.082338
C      -1.260175   -3.385510   -0.061419
C      -1.646802   -3.676983   -1.512560
O      -2.549137   -4.405426   -1.825477
C       0.847903   -2.053618    0.142761
C       1.180647   -0.718162    0.120595
H       0.631010    1.880581   -0.400391
H      -1.008769    1.759889   -0.334120
H      -2.133595   -0.757428   -0.057338
H      -0.648535   -4.222078    0.297274
H      -2.170038   -3.367862    0.547526
H      -1.005965   -3.160683   -2.262417
H       1.468734   -2.933762    0.203864
H       2.177239   -0.308945    0.189743
