20

N      -0.804414    0.860857   -0.940144
C      -0.748550   -0.382064   -0.727170
O      -1.041839   -0.863537    0.499526
C      -1.151983   -2.275829    0.632064
C      -2.548889   -2.764384    0.291971
O      -2.737180   -2.618375   -1.102726
C      -4.056000   -2.813538   -1.516255
C      -5.037631   -1.676658   -1.395103
C      -4.479745   -2.081419   -2.746182
H      -0.519478    1.057148   -1.897492
H      -0.461245   -1.159574   -1.444897
H      -0.414720   -2.783997   -0.003318
H      -0.924253   -2.501965    1.677194
H      -2.651459   -3.820026    0.594103
H      -3.291205   -2.175625    0.848816
H      -4.424505   -3.828309   -1.361358
H      -6.072872   -1.902915   -1.164880
H      -4.664456   -0.751256   -0.970572
H      -3.743723   -1.420930   -3.189651
H      -5.125158   -2.588796   -3.453977
