18

C      -0.037163    1.605214   -0.022451
C       0.095298    0.088523   -0.018880
C       0.715251   -0.654160   -1.198001
C       2.264950   -0.763997   -1.100912
C       3.001212    0.146207   -0.178134
C       2.397426    0.150972    1.015843
C       1.134316   -0.671273    0.929717
C       1.373448   -1.646346   -0.271183
H       0.921427    2.095337   -0.208077
H      -0.733189    1.920661   -0.808295
H      -0.429998    1.972982    0.932678
H      -0.881993   -0.366759    0.174140
H       0.237306   -0.829165   -2.155563
H       2.740241   -1.168725   -1.987271
H       3.865651    0.729786   -0.470419
H       2.656543    0.771047    1.865293
H       0.728421   -1.052649    1.865748
H       1.368100   -2.729673   -0.267821
