16

C       0.057215    1.551813    0.009162
C      -0.008612    0.013408    0.003254
C      -1.373430   -0.499139    0.012447
C      -2.510958   -0.901773    0.020367
C      -3.830306   -1.403906    0.029952
C      -5.017269   -0.725344    0.041759
O      -6.049915   -1.573590    0.048057
N      -5.566595   -2.881260    0.040219
C      -4.265595   -2.769367    0.029215
H       1.098511    1.886340    0.001840
H      -0.444336    1.965909   -0.869579
H      -0.429511    1.958487    0.899628
H       0.517862   -0.373588   -0.878924
H       0.532495   -0.380948    0.873234
H      -5.258817    0.325653    0.046850
H      -3.652466   -3.658895    0.021284
