17

C      -0.315475    1.510233    0.089880
C      -0.086519    0.032856    0.034217
C       0.053895   -0.742882   -1.043736
C       0.302252   -2.193301   -0.710794
C       0.104583   -2.240728    0.826403
C       0.117383   -0.767701    1.307843
O       1.321247   -0.377337    1.977723
H       0.453687    1.992507    0.703681
H      -0.305433    1.964519   -0.904565
H      -1.279700    1.742350    0.560419
H       0.011278   -0.383513   -2.067827
H      -0.389980   -2.863264   -1.234093
H       1.309284   -2.505797   -1.020167
H      -0.862030   -2.695627    1.062569
H       0.870068   -2.818868    1.350048
H      -0.663380   -0.578830    2.052969
H       2.032654   -0.419893    1.328451
