17

N      -0.021894   -1.154874   -0.097352
C      -0.040991   -0.000250   -0.068143
C      -0.002291    1.455888    0.035224
C      -0.152929    2.150946    1.418752
N       0.733535    3.251354    0.894149
C       1.347203    2.216523   -0.015573
C      -0.092277    4.140802    0.050053
C      -1.224971    3.371626   -0.677639
O      -0.884213    2.002361   -0.933327
H      -1.152233    2.440344    1.748308
H       0.355666    1.603134    2.214561
H       2.166892    1.701977    0.491867
H       1.660336    2.570786   -0.999858
H      -0.532529    4.922985    0.677869
H       0.579189    4.631737   -0.660726
H      -2.145193    3.401022   -0.080270
H      -1.453235    3.814805   -1.650218
