17

O       0.075034   -0.014062    0.071815
C       0.040772    1.199330    0.039563
N      -1.073809    1.994387   -0.016887
C      -0.800047    3.405122   -0.015470
C      -0.140397    3.981684    1.213227
C       0.705052    3.536260    0.034959
C       1.235503    2.132527    0.050601
C       2.480372    1.652388    0.705496
N       2.404788    1.757129   -0.755522
H      -1.992938    1.603889    0.116192
H      -1.418954    4.016347   -0.661809
H      -0.226408    5.050595    1.376795
H      -0.135725    3.378100    2.115323
H       1.226210    4.275220   -0.559632
H       3.132780    2.376175    1.185480
H       2.447204    0.663880    1.154877
H       2.234077    0.828695   -1.142012
