19

C      -0.143429    1.393062   -0.203928
C       0.320065   -0.064077   -0.109290
C       1.200207   -0.297339    1.133636
O       0.492008   -0.088028    2.341539
N      -0.717789   -1.093978   -0.083211
C      -1.942513   -0.779734   -0.143134
N      -2.914834   -1.774577   -0.108527
C      -4.267435   -1.531971   -0.177703
O      -4.768256   -0.436177   -0.262802
H       0.728242    2.048756   -0.287502
H      -0.772571    1.568076   -1.081952
H      -0.695324    1.687308    0.693271
H       0.951177   -0.294171   -0.980326
H       1.617281   -1.313455    1.084849
H       2.031416    0.414883    1.135924
H      -0.221683   -0.735526    2.356071
H      -2.370173    0.218860   -0.231303
H      -2.581074   -2.726498   -0.047579
H      -4.851264   -2.471007   -0.145166
