19

C       0.116644    1.530797    0.002345
C       0.084261    0.015914    0.011704
C      -0.863096   -0.681704    0.978771
C       0.620730   -0.768566    1.196022
C       1.339504   -2.082247    0.907420
C       1.868007   -2.080247   -0.519243
O       0.837069   -1.780882   -1.476937
C       0.157653   -0.608187   -1.354680
O      -0.390455   -0.142583   -2.317652
H       1.083525    1.907385   -0.348445
H      -0.656401    1.920117   -0.664501
H      -0.054587    1.925726    1.008202
H      -1.454747   -0.040651    1.623378
H      -1.376215   -1.576174    0.640352
H       1.027284   -0.167935    2.003593
H       2.178652   -2.222317    1.596483
H       0.666393   -2.935084    1.047383
H       2.676963   -1.346619   -0.630094
H       2.254247   -3.057861   -0.816714
