21

C      -0.007909    1.129951    0.223239
O      -0.220649   -0.011861   -0.586516
C      -1.370814   -0.713226   -0.243980
C      -1.462178   -2.122926   -0.733333
C      -1.309077   -1.852651    0.760056
C       0.026219   -2.182111    1.400819
C      -2.526532   -2.071037    1.647872
C      -2.749637   -3.534848    1.972045
O      -2.915213   -3.979603    3.078584
H       0.896550    1.619693   -0.144313
H      -0.849559    1.834930    0.150176
H       0.131043    0.862919    1.279824
H      -2.278441   -0.105164   -0.248259
H      -2.411827   -2.477818   -1.119402
H      -0.591622   -2.504786   -1.255428
H       0.851068   -1.879595    0.752220
H       0.139850   -1.664643    2.360474
H       0.121222   -3.256250    1.596426
H      -2.446925   -1.518232    2.589923
H      -3.427860   -1.718337    1.125284
H      -2.750059   -4.203428    1.079755
