13

N       0.034789   -1.178521   -0.303640
C       0.041783   -0.040978   -0.096304
C       0.073905    1.376025    0.112566
C       0.251545    2.363366   -1.038504
C       1.312852    2.240172    0.025818
O       1.275284    3.083999    1.137314
C      -0.052329    3.057225    1.629371
O      -0.634683    1.819252    1.240564
H       0.490165    1.934485   -2.005248
H      -0.401610    3.227936   -1.067923
H       2.303912    1.865194   -0.191538
H      -0.036002    3.121715    2.720366
H      -0.633394    3.891193    1.207901
