15

O      -0.010677    1.399042    0.023953
C      -0.035758    0.026768    0.073756
C       0.457435   -0.817963    1.296449
C      -0.397692   -1.935668    0.662008
C      -0.044507   -2.063140   -0.871317
O      -1.374985   -1.574020   -1.251788
C      -1.338259   -0.889640    0.026331
C       0.692475   -0.730208   -1.037461
O       1.514162   -0.311191   -1.803109
H       0.583329    1.645708   -0.700267
H       1.534961   -0.956962    1.419919
H       0.014255   -0.471229    2.233143
H      -0.735726   -2.822990    1.189864
H       0.277759   -2.965435   -1.385048
H      -2.292198   -0.523366    0.400558
