17

O      -0.103373    1.418525    0.067369
C       0.009686    0.006780    0.026495
C       0.800168   -0.510993    1.241637
O       0.762452   -1.927417    1.391286
C      -0.457038   -2.550953    1.118756
C      -1.836326   -2.043510    1.451568
O      -1.919384   -0.620473    1.434090
C      -1.387174   -0.594320    0.073236
C      -1.364631   -2.126591   -0.000330
H       0.781724    1.796781    0.044200
H       0.483904   -0.328119   -0.910811
H       1.860688   -0.252867    1.145516
H       0.394612   -0.014199    2.129704
H      -0.343110   -3.624890    1.233371
H      -2.588953   -2.581379    2.018080
H      -2.081278   -0.081502   -0.596461
H      -1.662107   -2.735417   -0.844207
