13

C      -0.058763    1.321051    0.087891
O       0.022614   -0.109676   -0.027827
C       0.642928   -0.557083   -1.122333
O       1.122957    0.128352   -1.990696
C       0.684965   -2.035733   -1.167697
C       1.223460   -2.857924   -2.109658
N       0.999045   -4.143029   -1.685014
N       0.381748   -4.142374   -0.585872
O       0.152652   -2.789564   -0.205239
H       0.942296    1.757531    0.114188
H      -0.608666    1.739872   -0.757991
H      -0.586299    1.507554    1.022224
H       1.735584   -2.622669   -3.025808
