19

C      -0.359591    1.451944   -0.006469
C       0.126647   -0.007234    0.068025
C       0.844842   -0.468676   -1.160183
C       2.177997   -0.697225   -1.426769
C       3.348951   -0.566672   -0.497415
O       3.135123   -1.176762    0.776307
N       2.350364   -1.102025   -2.735971
C       1.149544   -1.113265   -3.261837
N       0.203046   -0.740069   -2.353261
H       0.480722    2.135136   -0.160739
H      -1.062812    1.601073   -0.832989
H      -0.867471    1.738093    0.919691
H       0.813170   -0.130984    0.909386
H      -0.731523   -0.663679    0.268664
H       4.230903   -0.979717   -1.005626
H       3.566580    0.483007   -0.269280
H       2.886906   -2.092297    0.609144
H       0.900544   -1.385813   -4.276698
H      -0.790118   -0.692788   -2.511581
