16

C       0.002453    1.363892    0.017611
O      -0.048590   -0.061062   -0.013408
C      -1.260455   -0.632495   -0.008196
N      -2.337476    0.150075    0.026579
C      -3.507687   -0.506581    0.030274
C      -3.612746   -1.879109   -0.001328
C      -2.395151   -2.591495   -0.036116
N      -2.359574   -3.955459   -0.110616
N      -1.217508   -1.964542   -0.034725
H       1.064291    1.614647    0.007705
H      -0.497929    1.796837   -0.852905
H      -0.472256    1.757472    0.920613
H      -4.400774    0.113919    0.060386
H      -4.572091   -2.381202   -0.004236
H      -3.171625   -4.478396    0.169563
H      -1.463190   -4.380161    0.067570
