21

O       0.126423    1.364591   -0.300909
C       0.032576   -0.029644   -0.052036
C       0.774213   -0.455019    1.234152
C       0.559430    0.466635    2.449325
C      -0.866847    0.572663    3.018248
C      -1.902903    1.163421    2.041495
C      -2.358089    0.129717    1.032628
O      -2.447614    0.495421   -0.351980
C      -1.439233   -0.428696    0.034408
H       1.061474    1.584763   -0.365646
H       0.468440   -0.583357   -0.899377
H       0.481324   -1.485426    1.477844
H       1.851131   -0.492771    1.020022
H       1.225764    0.121093    3.248935
H       0.899488    1.474472    2.182915
H      -1.205827   -0.415494    3.360332
H      -0.823104    1.201469    3.915415
H      -2.772269    1.531799    2.597687
H      -1.470735    2.010172    1.502976
H      -3.176223   -0.513788    1.363577
H      -1.614841   -1.453633   -0.299461
