19

O      -0.036076   -0.130489    0.329430
C      -0.081974    1.063895    0.126738
C       1.114022    1.801100   -0.259861
C       2.095859    2.425376   -0.569276
C      -1.347552    1.901217    0.221707
C      -1.780431    2.414755   -1.192391
C      -3.316180    2.399807   -1.140512
C      -3.626606    1.130220   -0.334600
C      -2.570255    1.132918    0.790625
H       2.973312    2.959604   -0.842523
H      -1.103986    2.768457    0.845700
H      -1.354984    3.392629   -1.427848
H      -1.435059    1.716976   -1.964711
H      -3.681511    3.284962   -0.604498
H      -3.770483    2.408111   -2.135661
H      -4.650845    1.098866    0.046810
H      -3.490557    0.249552   -0.973372
H      -2.285407    0.125945    1.100237
H      -2.952514    1.655886    1.672369
