16

O      -0.033510   -0.085871    0.087340
C      -0.002436    1.111782   -0.046444
N      -1.206725    1.792531   -0.297280
C      -1.761088    3.058420   -0.110148
C      -1.338061    4.208099    0.451039
C      -0.058742    4.572908    1.031345
C       1.139464    4.108136    0.657238
C       1.296755    3.137898   -0.467638
O       1.163541    1.761807   -0.027243
H      -1.906529    1.079866   -0.445297
H      -2.786979    3.050580   -0.467204
H      -2.104954    4.976565    0.492561
H      -0.104367    5.316788    1.824270
H       2.035765    4.427226    1.178867
H       0.574393    3.336502   -1.264421
H       2.301617    3.176545   -0.892116
