18

C      -0.317305    1.619842    0.099650
C      -0.118689    0.112408    0.044085
C      -1.394623   -0.621512   -0.361564
O      -1.732281   -0.196448   -1.670430
C       1.123240   -0.408631   -0.719015
O       1.564959   -1.172973    0.432732
C       0.549754   -0.597586    1.268683
C       1.101664    0.274268    2.312142
N       1.523396    0.966286    3.136136
H       0.607243    2.136382    0.369397
H      -0.651594    1.980743   -0.876031
H      -1.079715    1.888414    0.838818
H      -1.218225   -1.708407   -0.329144
H      -2.195405   -0.389934    0.359817
H      -2.521471   -0.667625   -1.952681
H       0.926074   -1.047692   -1.584222
H       1.851725    0.364135   -0.989419
H      -0.062748   -1.368105    1.754769
