17

C       0.050103    1.120415    0.421763
N      -0.138786   -0.041110   -0.447378
C      -1.436696   -0.633725   -0.342360
C      -1.670172   -1.970268   -0.980854
C      -1.542922   -1.880180    0.544215
N      -0.355969   -2.304166    1.234547
C      -2.764648   -2.032456    1.301594
N      -3.756207   -2.159840    1.883771
H       1.046938    1.537812    0.257666
H      -0.693592    1.917722    0.259983
H      -0.018310    0.802793    1.466346
H       0.059206    0.196503   -1.412880
H      -2.294470    0.040523   -0.295396
H      -2.642438   -2.168848   -1.416580
H      -0.828199   -2.435798   -1.481898
H      -0.218214   -3.305217    1.142587
H       0.435410   -1.828195    0.808091
