15

C      -0.171175    1.428652   -0.201346
N       0.014392   -0.003706    0.000120
C       1.356639   -0.523438   -0.160954
C       0.738737   -0.447965    1.209123
C       1.244924    0.479447    2.175617
C       1.634971    1.243061    3.032675
C       2.084616    2.101951    3.985320
C       2.482600    2.865456    4.832750
H       0.687400    2.038373    0.116174
H      -0.350659    1.602891   -1.266403
H      -1.052596    1.758262    0.356041
H       1.445301   -1.489884   -0.649957
H       2.161705    0.179728   -0.368221
H       0.333397   -1.363526    1.634912
H       2.834831    3.535276    5.577264
