20

C      -0.061881    1.453145   -0.076951
N      -0.122717    0.002097   -0.081352
C       0.490135   -0.642346   -0.979299
O       1.241772   -0.084688   -1.995162
C       1.772594   -1.123170   -2.831291
C       3.293153   -0.993855   -2.902159
C       1.265640   -2.409169   -2.214090
C       1.574381   -3.750375   -2.790026
C       0.532199   -2.096249   -1.142196
H       0.318447    1.893246   -1.006030
H      -1.063391    1.851087    0.120137
H       0.578294    1.790574    0.748677
H       1.351969   -0.989790   -3.840234
H       3.735512   -1.137866   -1.912214
H       3.711349   -1.737886   -3.587223
H       3.567095   -0.000501   -3.266506
H       2.652972   -3.949262   -2.783846
H       1.079345   -4.547305   -2.230374
H       1.250391   -3.814582   -3.836419
H       0.018858   -2.766076   -0.467430
