14

N      -0.014041    1.398271   -0.082903
C       0.023300    0.006901   -0.038117
N      -1.156712   -0.619525   -0.004805
C      -1.174791   -1.952055   -0.026086
C      -0.025292   -2.737149   -0.069462
O      -0.167769   -4.097023   -0.079706
C       1.205650   -2.081558   -0.095362
C       1.236606   -0.696100   -0.083745
H       0.766292    1.869371    0.350019
H      -0.906949    1.766416    0.213771
H      -2.147838   -2.436131   -0.001402
H       0.703098   -4.504834   -0.115373
H       2.132002   -2.649936   -0.127323
H       2.181385   -0.163999   -0.115611
