23

C       0.068667    1.463484   -0.046836
C      -0.083969   -0.054866    0.091941
C      -1.539328   -0.571445    0.022100
C      -1.543178   -2.100453   -0.035442
O      -2.800387   -2.561008   -0.497339
C      -2.847233   -3.961606   -0.633766
C      -2.360817   -0.007739    1.171254
C      -3.419782   -0.727230    1.886559
O      -2.122382   -0.558992    2.472943
H       1.126571    1.741664   -0.077262
H      -0.396340    1.826686   -0.970418
H      -0.383664    2.003302    0.790090
H       0.491177   -0.540342   -0.705663
H       0.360321   -0.384600    1.039330
H      -1.993635   -0.211463   -0.911765
H      -0.750451   -2.442292   -0.720517
H      -1.320347   -2.514692    0.960764
H      -2.099266   -4.324663   -1.356598
H      -2.671054   -4.474475    0.325018
H      -3.844343   -4.223070   -0.996583
H      -2.430716    1.080858    1.173411
H      -4.218369   -0.161506    2.365644
H      -3.673584   -1.738580    1.585398
