18

N       0.077335    1.212613    0.066946
C      -0.002756   -0.036759   -0.011143
O       0.999852   -1.005135   -0.042572
C       0.035108   -2.077542   -0.292252
C      -0.350673   -2.857105    0.983735
C      -1.523665   -1.866239    1.195769
C      -2.856035   -2.183927    0.442802
C      -2.521266   -1.105560   -0.637672
C      -1.104342   -1.039917   -0.085651
H       1.049389    1.521523    0.120204
H       0.259849   -2.592072   -1.227597
H      -0.649469   -3.896189    0.817570
H       0.432473   -2.830466    1.744784
H      -1.636084   -1.385567    2.167195
H      -2.893200   -3.204200    0.050702
H      -3.767309   -2.004924    1.015994
H      -2.638015   -1.376344   -1.690244
H      -3.055891   -0.168818   -0.458148
