19

C       0.149323    1.411392    0.139041
O      -0.071773    0.013857   -0.010520
C       0.571629   -0.555727   -1.074494
C      -0.023158   -0.956964   -2.233607
C      -1.422099   -0.887357   -2.722235
O       0.913002   -1.553633   -3.027174
C       2.098945   -1.520834   -2.355897
C       1.966197   -0.921679   -1.144504
C       3.010745   -0.714876   -0.093735
H       1.209053    1.640650    0.308525
H      -0.192134    1.963945   -0.745972
H      -0.427491    1.729058    1.010620
H      -1.506730   -0.295175   -3.640928
H      -1.825811   -1.883816   -2.935754
H      -2.042753   -0.424069   -1.951845
H       2.937260   -1.968578   -2.864826
H       3.302226    0.338409   -0.002325
H       2.645719   -1.032416    0.888732
H       3.915200   -1.286305   -0.319964
