25

C      -0.153745    1.547343   -0.010993
C       0.015410    0.031519   -0.010720
C       1.138261   -0.584757   -0.903402
C       2.120220   -0.251896    0.252629
C       0.881691   -0.608151    1.129854
C       0.710149   -2.134448    0.872770
C       1.776000   -2.983681    1.582998
C      -0.666833   -2.666435    1.299643
C       0.903048   -2.096353   -0.694749
H       0.783459    2.091961    0.130970
H      -0.588387    1.883567   -0.959200
H      -0.836534    1.856794    0.788355
H      -0.971986   -0.417866   -0.155260
H       1.311432   -0.242761   -1.925852
H       3.025548   -0.855088    0.348449
H       2.391572    0.802284    0.301218
H       0.795480   -0.276009    2.167386
H       1.668812   -2.913099    2.671922
H       1.668410   -4.039838    1.310637
H       2.795616   -2.684507    1.329376
H      -1.495461   -2.122138    0.840516
H      -0.774464   -3.720746    1.020431
H      -0.787813   -2.601908    2.387547
H       0.017175   -2.455281   -1.228839
H       1.756631   -2.699492   -1.020809
