20

C       0.011822    1.519607    0.061188
C      -0.011577   -0.009746   -0.009476
C       0.678421   -0.540276   -1.287394
C       0.854050   -2.062800   -1.243793
C       1.541749   -2.475001    0.064481
C       0.788714   -1.888275    1.256531
O       0.660300   -0.468203    1.156089
C      -1.427414   -0.474068    0.014566
N      -2.522664   -0.843377    0.032726
H       1.051613    1.855312    0.073667
H      -0.497152    1.954377   -0.802564
H      -0.479567    1.862917    0.973860
H       0.106181   -0.230450   -2.167635
H       1.658406   -0.051347   -1.340080
H      -0.128325   -2.546655   -1.312676
H       1.432306   -2.396173   -2.111225
H       1.583484   -3.565518    0.159970
H       2.574668   -2.105510    0.076268
H      -0.208570   -2.345909    1.341623
H       1.320034   -2.059661    2.196132
