15

C       0.036258    1.330749    0.009295
O      -0.025774   -0.098919    0.002735
C      -1.266883   -0.612820    0.009934
O      -2.276165    0.053698    0.021035
C      -1.274030   -2.089710    0.002774
N      -0.161795   -2.830333   -0.009052
N      -0.612219   -4.088655   -0.011810
C      -1.969424   -4.182674   -0.002283
C      -2.439919   -2.891651    0.007498
H       1.097369    1.579848    0.002351
H      -0.460122    1.744185   -0.872660
H      -0.446460    1.735450    0.902807
H       0.056235   -4.841496   -0.020356
H      -2.471247   -5.136999   -0.003239
H      -3.460800   -2.550641    0.016715
