23

C      -0.724801    1.584631    0.481846
C       0.090131    0.368149    0.027686
C       0.821245   -0.313031    1.166759
C       0.112630   -1.335284    2.033108
C       1.207946   -1.758750    1.092385
C       1.044661   -2.753753   -0.066884
C       2.088817   -3.655984    0.654167
O       3.043308   -4.361441   -0.095676
C       2.521388   -2.431754    1.512315
H      -0.080100    2.341390    0.942401
H      -1.241358    2.055254   -0.360667
H      -1.477721    1.297709    1.223299
H      -0.573533   -0.357158   -0.459485
H       0.813546    0.678798   -0.738396
H       1.526973    0.330680    1.690640
H       0.314161   -1.343917    3.099971
H      -0.909918   -1.594622    1.771190
H       0.055524   -3.176043   -0.261337
H       1.451165   -2.362409   -1.008413
H       1.589569   -4.406212    1.273332
H       3.507139   -3.729687   -0.655595
H       3.397570   -1.936185    1.074349
H       2.706689   -2.594407    2.577442
