16

N      -0.219223    1.205701   -0.073817
C      -0.154446   -0.044449   -0.061836
O       0.962861   -0.890440   -0.126083
C       0.113304   -2.046035    0.075945
C      -1.132117   -1.161126    0.044411
C      -0.811549   -2.161676   -1.073328
C      -0.619851   -2.005606   -2.575298
C      -1.543481   -3.243383   -2.643974
O      -1.654090   -3.291423   -1.193715
H       0.708731    1.625006   -0.150376
H       0.441357   -2.818783    0.757786
H      -2.062300   -1.194464    0.591655
H      -1.027153   -1.089110   -3.002987
H       0.401354   -2.154945   -2.926857
H      -2.520729   -3.087465   -3.110721
H      -1.089254   -4.158365   -3.036349
