21

O      -0.374826    0.082117   -0.377408
C      -0.220092    1.252499   -0.129120
C      -1.326043    2.254668    0.218671
C      -0.575473    3.509038    0.693630
C       0.755788    3.459315   -0.088487
C       1.127190    1.971644   -0.102541
C       2.065003    1.510982    1.076233
C       3.248305    1.453468    0.076460
C       2.223693    1.485951   -1.086794
H      -1.885611    2.453545   -0.705251
H      -2.035059    1.830602    0.933676
H      -1.130610    4.434675    0.524221
H      -0.376830    3.441552    1.769512
H       0.594945    3.808119   -1.117328
H       1.531002    4.093945    0.350780
H       2.144784    2.194436    1.925928
H       1.784619    0.519031    1.439143
H       3.862583    2.357173    0.112953
H       3.907949    0.585306    0.139561
H       1.980840    0.485192   -1.454486
H       2.439342    2.140334   -1.935721
