17

O       0.458739    1.175216    0.094538
C       0.160549   -0.194282   -0.042438
C      -1.356012   -0.438980   -0.040782
C      -1.743000   -1.950422   -0.072765
N      -2.165833   -2.162799    1.313878
C      -2.325002   -0.929124    1.885354
C      -2.962449   -0.801140    3.222987
O      -3.436954   -1.743237    3.810003
N      -1.905138    0.092395    1.227291
H      -0.081264    1.490722    0.830392
H       0.589841   -0.526492   -0.994498
H       0.617683   -0.798753    0.759910
H      -1.788558    0.119773   -0.876544
H      -2.556501   -2.152807   -0.780347
H      -0.895702   -2.593797   -0.334015
H      -2.765793   -2.922557    1.594703
H      -2.979040    0.232746    3.615895
