21

C      -0.124876    1.454195   -0.179081
C       0.206799   -0.021810   -0.129109
C       1.634988   -0.495917    0.051070
O       2.642567    0.441916    0.321386
C       0.634074   -0.723315    1.151911
C       0.749198   -0.003270    2.487752
C       1.649339   -0.817493    3.422661
C       3.067308   -0.316611    3.603033
O       1.238653   -1.822887    3.955899
H       0.618283    2.053431    0.351521
H      -0.154430    1.807036   -1.216157
H      -1.105012    1.658436    0.264539
H      -0.398304   -0.633155   -0.794422
H       1.971401   -1.359942   -0.521015
H       2.876113    0.881983   -0.502684
H       0.290592   -1.747624    1.263585
H       1.144536    1.004790    2.354455
H      -0.241223    0.061637    2.950458
H       3.049501    0.638567    4.142868
H       3.657216   -1.040316    4.167042
H       3.518654   -0.116211    2.625844
