17

C      -0.007839    1.487235   -0.023728
C       0.061929   -0.008877   -0.090151
C       0.625059   -0.949920   -1.180529
C       0.092198   -1.939442   -0.125166
C       0.468840   -0.998007    1.054441
O      -0.851019   -1.024168    1.673379
C      -1.122187   -1.011731    0.232952
C      -2.460072   -1.019788   -0.261989
C      -3.577453   -1.014190   -0.707242
H       0.992272    1.931557   -0.069317
H      -0.594267    1.891550   -0.855393
H      -0.481078    1.798042    0.913295
H       0.109737   -0.940946   -2.144800
H       1.709023   -0.930543   -1.325087
H       0.082530   -3.028578   -0.118084
H       1.346270   -0.999642    1.699307
H      -4.567144   -1.013423   -1.092874
