19

C      -0.048601    1.611755    0.213374
C       1.476464    1.353836   -0.003937
C       1.750482    0.439855    1.212085
C       0.715218   -0.411538    1.221894
C      -0.091569    0.047832    0.009557
C      -1.216495   -0.574243   -0.771168
O      -1.091245    0.003599   -2.079145
C       0.246410    0.497018   -2.320798
C       1.051298    0.249164   -1.040525
H      -0.353735    1.987288    1.191781
H      -0.537379    2.173640   -0.585805
H       2.191158    2.146656   -0.225678
H       2.589660    0.512261    1.889808
H       0.483139   -1.219594    1.900713
H      -1.116162   -1.670551   -0.815722
H      -2.219619   -0.333489   -0.403571
H       0.676661   -0.050019   -3.168018
H       0.173147    1.552680   -2.607229
H       1.755423   -0.579322   -1.144717
