16

O       0.021164    0.083025    0.287172
C      -0.047487    1.268286    0.098885
C      -1.324105    2.096387   -0.091805
C      -0.821211    3.512755   -0.007660
C       0.508238    3.585669    0.082238
C       1.162960    2.228883    0.066858
C       2.136981    1.914643    1.225244
C       3.353971    2.718080    1.161875
N       4.305085    3.371039    1.093147
H      -1.779031    1.856307   -1.062797
H      -2.069807    1.830889    0.666829
H      -1.487133    4.367289   -0.029960
H       1.083576    4.501922    0.144044
H       1.703943    2.059350   -0.875467
H       1.646927    2.093208    2.188752
H       2.394417    0.851081    1.187072
