16

C      -0.288250    1.230478   -0.057491
C      -0.032769   -0.259249   -0.163225
O      -0.478579   -1.065014    0.614228
C       0.837947   -0.687253   -1.348661
O       0.973454   -2.095873   -1.422818
C      -0.106719   -2.753440   -1.920585
C       0.084920   -4.242761   -1.807351
O      -1.065621   -2.192533   -2.383283
H       0.635026    1.806041   -0.183597
H      -0.971629    1.536999   -0.858218
H      -0.743733    1.459131    0.906494
H       0.413893   -0.283206   -2.273993
H       1.848569   -0.286573   -1.219755
H      -0.692287   -4.754222   -2.373773
H       1.075627   -4.533069   -2.164979
H       0.017793   -4.529042   -0.753240
