18

C      -0.617819    1.405660   -0.030428
C       0.199196    0.131028    0.023006
C       1.115315   -0.124367   -1.208312
N       2.257315   -0.718739   -0.551139
C       3.479152   -1.273822   -0.885578
C       4.191302   -1.388205    0.284892
C       3.403514   -0.867422    1.368169
C       2.232804   -0.460783    0.787495
O       1.095089    0.181069    1.162456
H       0.033478    2.275135   -0.158190
H      -1.323045    1.369216   -0.866932
H      -1.188324    1.532128    0.893148
H      -0.455553   -0.739704    0.163411
H       0.645355   -0.797285   -1.930761
H       1.381225    0.810784   -1.720345
H       3.709346   -1.566875   -1.896114
H       5.175188   -1.823484    0.376007
H       3.670209   -0.811294    2.410006
