19

C      -0.065161    1.517627    0.005788
C       0.016958    0.022408    0.015721
C       0.028478   -0.914551   -1.152004
C       1.276615   -1.784503   -1.085119
O       1.821905   -1.557870    0.222387
C       0.811656   -0.906825    0.976894
C      -0.472089   -1.791718    1.136395
O      -1.247626   -1.444914    2.268737
C      -1.042426   -1.075526   -0.077872
H       0.915302    1.968100   -0.188736
H      -0.750967    1.866968   -0.773353
H      -0.428105    1.903379    0.964536
H      -0.315295   -0.559096   -2.116921
H       1.064780   -2.852969   -1.226652
H       2.020114   -1.482559   -1.832821
H       1.244048   -0.505447    1.894225
H      -0.309272   -2.878233    1.078092
H      -0.814360   -1.815498    3.044829
H      -2.098115   -0.988703   -0.308836
