19

O      -0.189590    1.476542   -0.079432
C      -0.011869    0.071496   -0.154597
C      -1.353713   -0.576605    0.196521
C      -1.327624   -2.073944    0.147713
C      -1.577653   -2.911754    1.162753
C      -1.579392   -4.327882    0.697926
O      -2.596841   -4.598760   -0.299162
C      -1.273641   -4.298181   -0.742404
C      -1.057663   -2.844051   -1.142051
H       0.649278    1.898465   -0.286330
H       0.303834   -0.235898   -1.164097
H       0.759095   -0.276764    0.550906
H      -1.650642   -0.236928    1.193919
H      -2.102653   -0.188492   -0.507127
H      -1.805600   -2.613324    2.179133
H      -1.348189   -5.161953    1.353216
H      -0.760791   -5.101041   -1.265355
H      -1.734850   -2.537288   -1.948802
H      -0.035136   -2.686644   -1.508906
