19

C      -0.538292    1.136118   -0.577703
N      -1.131143   -0.172816   -0.389048
C      -0.824777   -0.806858    0.657691
O      -1.300098   -2.024776    0.966120
C      -2.238542   -2.580766    0.041325
C      -1.723236   -3.174178   -1.289915
N      -2.312332   -4.524930   -0.963599
C      -1.610231   -4.959932    0.252074
C      -2.698799   -3.974268    0.409072
H       0.027628    1.153204   -1.516089
H      -1.328443    1.890041   -0.668842
H       0.136517    1.441352    0.237885
H      -0.141076   -0.460476    1.441893
H      -3.049698   -1.867400   -0.113338
H      -2.197801   -2.742981   -2.171352
H      -0.637914   -3.187704   -1.425426
H      -1.834605   -5.985051    0.529828
H      -0.577428   -4.657184    0.408997
H      -3.645971   -4.217758    0.877852
