19

C       0.071611    0.610786    1.025914
C      -0.006544    0.129830   -0.408104
O       0.850898    0.361039   -1.227510
C      -1.236717   -0.714484   -0.769840
C      -1.020599   -2.145126   -0.365106
C      -0.069255   -3.184763   -0.986915
C      -1.048148   -4.306868   -0.489495
C      -1.931652   -3.204449    0.108524
O      -1.114874   -2.469814    1.033963
H       1.043163    1.067502    1.217633
H      -0.719571    1.348785    1.206899
H      -0.110575   -0.221368    1.713535
H      -2.128583   -0.334677   -0.260884
H      -1.378958   -0.654403   -1.852398
H      -0.018705   -3.123013   -2.076103
H       0.942158   -3.188713   -0.575579
H      -1.525552   -4.842674   -1.313047
H      -0.653491   -5.023091    0.234528
H      -3.001686   -3.195406    0.285329
