11

O       0.097441    1.334418   -0.299445
C       0.020607    0.027927    0.228082
C      -1.381615   -0.502161    0.168613
N      -1.982295   -1.111437    1.152817
O      -3.245213   -1.421818    0.619722
C      -3.247168   -0.946123   -0.623391
N      -2.143447   -0.370629   -0.977587
H      -0.343721    1.320295   -1.157237
H       0.681189   -0.669978   -0.311437
H       0.354089    0.066210    1.267493
H      -4.148707   -1.082638   -1.202622
