18

C      -0.294834    1.518360   -0.088441
C       0.066675    0.036659    0.091515
C       0.858692   -0.498279   -1.057600
O       0.177360   -0.760463   -2.313768
C       0.940632   -1.817468   -1.735958
C       2.407103   -1.591704   -2.162729
C       2.292195   -0.244150   -1.443334
N       3.072245    0.688934   -1.095639
O       4.363653    0.495396   -1.615481
H       0.607915    2.129556   -0.174216
H      -0.891269    1.662514   -0.993946
H      -0.875235    1.880166    0.765059
H       0.652455   -0.096763    1.008601
H      -0.841518   -0.567466    0.193310
H       0.432297   -2.746701   -1.507162
H       3.134559   -2.249186   -1.677568
H       2.584995   -1.571373   -3.239821
H       4.838091    1.261018   -1.273605
