16

N       0.174636    1.118188   -0.405915
C       0.063003   -0.156847    0.062113
O       1.007530   -0.804184    0.463942
C      -1.372767   -0.724676    0.071210
C      -2.040675   -0.841967   -1.319534
O      -1.818631   -2.193344   -1.712810
C      -1.449791   -2.938300   -0.619716
N      -1.211569   -4.177100   -0.615433
N      -1.399381   -2.105385    0.495851
H       1.074631    1.567497   -0.351402
H      -0.627227    1.685309   -0.620582
H      -1.977013   -0.086975    0.729571
H      -3.118152   -0.651710   -1.255732
H      -1.601473   -0.180392   -2.070173
H      -1.338371   -4.566123   -1.546801
H      -0.683637   -2.369174    1.160672
