15

C      -0.321848    1.419172   -0.279310
C       0.013093   -0.040477   -0.024916
C       0.974926   -0.737431   -0.941285
N       1.384438   -0.403428    0.422527
C      -1.038801   -0.815918    0.576988
C      -1.961870   -1.431623    1.056887
C      -3.021684   -2.202588    1.648642
O      -4.186210   -1.871907    1.665366
H       0.509864    1.920050   -0.785001
H      -1.211700    1.510253   -0.908794
H      -0.521414    1.940403    0.661884
H       0.854470   -1.798197   -1.136391
H       1.361152   -0.155677   -1.774655
H       1.955827    0.439220    0.419741
H      -2.684757   -3.155535    2.105262
