17

C      -0.004104    1.481399    0.106916
C       1.306673    0.727306    0.004725
N       2.070631    0.342228    1.189787
C       1.184453   -0.447314    1.968395
C       0.040148   -0.750591    1.277708
N      -0.725392   -1.576696    2.060160
C      -0.060567   -1.789804    3.248173
C       1.137323   -1.092994    3.229019
C      -0.022000   -0.036654   -0.013310
H      -0.296606    1.912921    1.057996
H      -0.288744    2.056556   -0.768312
H       1.893868    0.850683   -0.898789
H       2.479507    1.132302    1.675278
H      -1.617191   -1.970730    1.820149
H      -0.478516   -2.435163    4.003917
H       1.868758   -1.079366    4.021911
H      -0.397966   -0.501025   -0.918785
