21

C      -0.128851    1.488499   -0.091520
C      -0.035649   -0.008940    0.066569
N       1.314644   -0.608809   -0.093305
C       0.646755   -0.650691    1.206660
C       1.300248   -0.073145    2.485091
C       0.900707   -1.377909    3.208383
C       1.655194   -2.057836    4.307246
N      -0.579420   -1.444973    3.106415
C       0.267395   -1.906318    1.964560
H       0.744477    1.976171    0.349530
H      -0.172506    1.769076   -1.149545
H      -1.027959    1.874360    0.400716
H      -0.869961   -0.567631   -0.357114
H       1.247486   -1.513857   -0.554753
H       2.380315    0.036122    2.360099
H       0.870712    0.842507    2.899092
H       1.562437   -1.506454    5.250579
H       1.278212   -3.072993    4.475349
H       2.721382   -2.129765    4.067511
H      -0.868814   -2.286802    3.607835
H       0.189247   -2.920154    1.585560
