20

C       0.233219    1.591202    0.376836
C      -0.030182    0.112780    0.064725
C       0.642460   -0.424162   -1.210854
C       2.232133   -0.440993   -1.239962
C       2.161906   -1.957802   -1.425540
N       1.451329   -2.492246   -0.238199
C       0.677175   -1.953690   -1.380630
C       0.128809    0.260833   -2.452533
O      -0.431497   -0.294343   -3.365731
H       1.306156    1.804421    0.429939
H      -0.202345    2.262725   -0.369452
H      -0.202219    1.856306    1.345050
H       0.332335   -0.508412    0.889251
H      -1.111563   -0.062510   -0.008457
H       2.647692    0.087758   -2.102326
H       2.729168   -0.100647   -0.328107
H       2.837166   -2.581153   -1.997828
H       1.439145   -3.508058   -0.326053
H      -0.041929   -2.554191   -1.920702
H       0.316686    1.357863   -2.487908
