12

C      -0.002056    1.530434    0.011027
C       0.047358    0.021274    0.004336
O       0.750415   -0.461225   -1.143371
C       1.792069   -1.239155   -0.759660
O       2.547991   -1.785825   -1.496974
C       1.784299   -1.246209    0.774338
O       2.532740   -1.799680    1.514205
O       0.738783   -0.471794    1.154626
H       1.011287    1.939742    0.018324
H      -0.526553    1.883444   -0.880142
H      -0.536048    1.875262    0.899758
H      -0.952233   -0.426418   -0.002771
