20

C       0.261683    1.453104   -0.022368
C       0.022769   -0.070064   -0.005771
C       0.471598   -0.655623    1.332812
O      -1.377026   -0.332886   -0.099349
C       0.699663   -0.711117   -1.227574
O       0.045134   -0.335232   -2.426969
C       2.179226   -0.963746   -1.322682
C       1.198530   -2.121059   -1.256147
H       1.324157    1.695969    0.083457
H      -0.103295    1.899365   -0.953870
H      -0.288943    1.920362    0.798111
H      -0.067429   -0.151168    2.139477
H       0.231573   -1.719372    1.390176
H       1.542830   -0.516612    1.502983
H      -1.592401   -0.260319   -1.038458
H       0.342452    0.550442   -2.663011
H       2.651599   -0.763717   -2.278421
H       2.803679   -0.767101   -0.458385
H       1.162269   -2.715053   -0.351877
H       1.016361   -2.670330   -2.172246
