19

C      -0.025663    1.501242    0.013362
O       1.185832    0.747227   -0.115208
C      -0.058141    0.036607   -0.015458
C      -0.321237   -0.776529    1.250289
C      -0.238117   -2.307034    0.997692
C      -0.553335   -2.591624   -0.477054
C       0.500592   -1.958122   -1.407439
C      -0.427093   -0.736787   -1.271348
O      -1.540237   -1.617051   -0.946110
H      -0.149415    2.024799    0.961277
H      -0.319495    2.069673   -0.868805
H       0.370050   -0.455717    2.033860
H      -1.333506   -0.539606    1.589681
H       0.756870   -2.701128    1.233344
H      -0.948549   -2.824637    1.649383
H      -0.874006   -3.619429   -0.663630
H       1.528064   -1.863069   -1.051671
H       0.476934   -2.380802   -2.412926
H      -0.620526   -0.101096   -2.138777
