19

C      -0.026993    1.541072   -0.104639
C       1.429667    1.996253    0.021777
C       2.143925    1.755832    1.348363
C       1.417464    1.325470    2.556753
C       0.631413    0.243124    2.559530
C       0.443952   -0.584887    1.354357
C      -0.008869    0.015495    0.026848
C       1.419609   -0.439546    0.182758
C       2.304693    0.779150    0.179635
H      -0.668033    2.008577    0.652802
H      -0.421153    1.824824   -1.085909
H       1.756682    2.850416   -0.561727
H       2.986699    2.417804    1.523359
H       1.550965    1.911901    3.460600
H       0.117255   -0.062224    3.465659
H       0.075623   -1.590518    1.533630
H      -0.721354   -0.561682   -0.553013
H       1.792773   -1.343901   -0.281732
H       3.278998    0.702511   -0.286969
