17

O       0.085056    0.027665    0.078030
C       0.016050    1.231636    0.034540
C      -1.315721    2.057551    0.043171
C      -0.833347    3.440203   -0.394508
C      -0.911091    4.853205    0.243562
C      -0.233668    4.919295    1.574478
C       0.640236    4.868971    0.325084
C       0.640015    3.428137   -0.073309
C       1.154881    2.204725    0.080119
H      -2.071686    1.588952   -0.589749
H      -1.690426    2.054897    1.073703
H      -0.961560    3.569407   -1.476281
H      -1.566817    5.643573   -0.100164
H      -0.260162    5.889621    2.061061
H      -0.243576    4.076968    2.259834
H       1.354429    5.648819    0.097176
H       2.165646    1.898979    0.315349
