16

C      -0.002439    1.481543    0.010561
C      -0.000684    0.027401    0.002956
C      -0.000606   -1.179388   -0.003328
C       0.010234   -2.601613   -0.011101
C       1.222470   -3.315903   -0.022185
N       1.308445   -4.643292   -0.029855
C       0.165357   -5.336364   -0.026768
C      -1.092478   -4.738902   -0.016030
C      -1.173205   -3.353877   -0.008084
H       1.018248    1.878763    0.002911
H      -0.522502    1.882852   -0.866563
H      -0.505632    1.873606    0.901600
H       2.160266   -2.766154   -0.024811
H       0.260924   -6.419412   -0.033181
H      -1.988821   -5.349164   -0.013962
H      -2.131837   -2.847242    0.000381
