22

C      -0.159588    1.470832   -0.940924
C      -0.032035    0.140845   -0.189965
C      -1.368520   -0.468466    0.177542
C      -2.154567   -1.253859   -0.833307
C      -1.533959   -1.945287    0.364545
O      -2.200178    0.368321    0.977528
C      -1.908591    0.518485    2.291556
C      -2.928383    1.430250    2.928004
N      -0.913234   -0.051897    2.834471
H       0.827042    1.879805   -1.178731
H      -0.709553    1.347210   -1.880011
H      -0.694637    2.211915   -0.340013
H       0.504441   -0.586426   -0.810669
H       0.556502    0.270492    0.722868
H      -3.230294   -1.121225   -0.831943
H      -1.715091   -1.405672   -1.813284
H      -0.664214   -2.575907    0.217109
H      -2.198111   -2.273931    1.154417
H      -2.726164    1.562199    3.992090
H      -2.917400    2.408158    2.436977
H      -3.934118    1.018153    2.801009
H      -0.870669    0.183829    3.823541
