23

O      -0.574462    0.775360    0.832688
C       0.041471    1.022764   -0.171762
C       1.352184    1.771503   -0.229393
C       1.266965    3.007848   -1.142062
C       2.610278    3.727663   -1.299723
C       2.528850    4.970042   -2.196421
C       3.857114    5.680547   -2.349328
C       4.849595    5.230650   -3.393467
C       4.132554    6.550352   -3.548178
H      -0.344474    0.704777   -1.170279
H       1.646473    2.041305    0.789240
H       2.109459    1.082169   -0.631592
H       0.896170    2.704999   -2.130929
H       0.521664    3.704184   -0.736398
H       2.984033    4.019262   -0.308895
H       3.353129    3.031547   -1.711193
H       2.159072    4.679805   -3.189567
H       1.783504    5.665490   -1.786045
H       4.287518    6.023593   -1.410960
H       5.906024    5.242584   -3.149089
H       4.557710    4.418240   -4.051856
H       3.362328    6.621291   -4.309542
H       4.698573    7.464409   -3.406319
