22

C      -0.270129    1.163210   -1.306308
C       0.310637   -0.136109   -0.781201
O       1.702539   -0.310735   -1.133024
C       2.108119   -0.549502    0.254837
C       2.552107   -1.992533    0.452186
C       3.171104    0.452700    0.680002
C       0.667227   -0.257395    0.699945
C       0.137115    0.501470    1.849455
N      -0.042949   -0.964305    1.751971
H       0.294719    2.022467   -0.934217
H      -0.236508    1.174743   -2.400307
H      -1.317283    1.271295   -1.001068
H      -0.288165   -0.987946   -1.141926
H       3.466586   -2.185330   -0.117645
H       2.747439   -2.194532    1.509623
H       1.778795   -2.686823    0.113875
H       2.820907    1.477888    0.533633
H       3.431668    0.319052    1.735352
H       4.079500    0.311523    0.085490
H       0.797207    0.826196    2.649379
H      -0.721319    1.148305    1.683653
H      -0.991025   -1.186870    1.455526
