12

O       0.114028    1.362554    0.022933
C       0.078085    0.024634   -0.016508
C       0.023125   -0.764598   -1.160804
N       0.004663   -2.061826   -0.656983
C       0.046861   -1.984279    0.682177
N       0.092537   -0.727367    1.110976
C      -0.012566   -0.502887   -2.573032
O      -0.061250   -1.385911   -3.413899
H       0.148641    1.612217    0.956032
H      -0.034196   -2.877804   -1.247507
H       0.043439   -2.854929    1.320555
H       0.006576    0.569766   -2.849651
