15

C      -0.008094    1.445696    0.035454
N      -0.004497   -0.002157   -0.033560
C       0.000190   -0.770577   -1.164153
C       0.002747   -2.089440   -0.749049
N      -0.061083   -3.251584   -1.507424
C      -0.000527   -1.996062    0.669725
N      -0.007327   -0.716265    1.084738
C       0.014364   -3.090087    1.569658
N       0.036461   -4.037026    2.237497
H       0.882982    1.855882   -0.448991
H      -0.899835    1.851754   -0.451098
H      -0.010097    1.719744    1.089344
H      -0.003939   -0.331562   -2.148395
H       0.409358   -3.198906   -2.399548
H       0.222782   -4.078688   -0.999367
