20

C       0.160854    1.602280   -0.080723
C      -0.032697    0.101836    0.156786
N       0.710920   -0.407050    1.292459
C       2.145469   -0.644703    1.249689
C       2.479295   -1.157303    2.646029
C       2.122810   -0.262479    3.795022
C       1.163728   -1.355050    3.364907
C       0.086277   -0.913084    2.412998
O      -1.114912   -0.978206    2.580671
H       1.207534    1.849842   -0.285640
H      -0.431459    1.927483   -0.941744
H      -0.161503    2.176042    0.793094
H      -1.083051   -0.118966    0.364800
H       0.255744   -0.460768   -0.742522
H       2.391807   -1.394922    0.482891
H       2.697159    0.271318    1.001413
H       3.296551   -1.859354    2.750926
H       2.648880   -0.419863    4.730052
H       1.850577    0.769796    3.596965
H       0.943089   -2.180386    4.027986
