19

C      -0.215699    1.519296   -0.271592
C      -0.071192    0.095294    0.281118
C      -1.381822   -0.654719    0.216713
N      -1.745040   -1.294229   -1.042050
C      -1.491782   -2.161642    0.122206
C      -0.300093   -3.092025    0.082441
C      -2.716034   -2.702278    0.786777
O      -3.830171   -2.272520    0.593391
H       0.735537    2.057445   -0.223824
H      -0.541670    1.494040   -1.315750
H      -0.954058    2.094045    0.298106
H       0.689654   -0.441131   -0.292598
H       0.272357    0.130541    1.322687
H      -2.196893   -0.185637    0.768438
H      -2.756846   -1.243119   -1.168102
H       0.567965   -2.607256   -0.364440
H      -0.028314   -3.422038    1.091355
H      -0.524801   -3.982175   -0.515043
H      -2.541569   -3.547030    1.488264
