17

C      -0.095842    1.519789   -0.033001
N       0.086895    0.081485    0.048204
C       0.722816   -0.560992   -1.138157
C       1.408883   -1.889513   -0.646076
C       1.569472   -1.506729    0.783575
C       0.806973   -0.449039    1.118510
N       0.823926   -0.241766    2.480427
C       1.587447   -1.212252    2.898728
O       2.065680   -2.049722    1.937891
H       0.843415    2.060003   -0.246514
H      -0.815652    1.756245   -0.822475
H      -0.495055    1.882216    0.916974
H      -0.017918   -0.736018   -1.922341
H       1.499024    0.109001   -1.540973
H       0.744557   -2.754972   -0.776596
H       2.328793   -2.091235   -1.202496
H       1.901832   -1.416610    3.909934
