22

C       0.422475    0.826287   -0.484996
O       0.872631   -0.467077   -0.123022
C       0.877295   -0.725687    1.256505
C       1.943334    0.017054    2.034198
C      -0.458022   -1.027902    1.911890
C       0.531335   -2.144402    1.672714
N       0.207331   -3.273267    0.845104
C      -0.388014   -3.151743   -0.478374
C       1.027107   -3.596972   -0.319298
H       1.111775    1.613115   -0.150591
H       0.371484    0.849539   -1.576127
H      -0.574434    1.036989   -0.073424
H       1.755327    1.096210    2.058461
H       1.974079   -0.329667    3.070855
H       2.928975   -0.148795    1.586623
H      -0.655994   -0.690774    2.924079
H      -1.322205   -1.018836    1.255389
H       1.081565   -2.477152    2.550377
H      -1.168751   -3.878575   -0.690760
H      -0.539737   -2.164841   -0.899314
H       1.792024   -2.884566   -0.616736
H       1.295521   -4.644803   -0.428875
