14

O       0.031650   -0.019280   -0.124479
C      -0.020228    1.181982   -0.039411
C      -1.233989    2.044953    0.024981
C      -0.883547    3.337465    0.009703
C       0.602610    3.515025   -0.026249
C       1.356716    3.019021    1.209061
C       0.692929    2.762586    2.459145
N       0.183547    2.575003    3.480109
C       1.174322    2.129906   -0.024647
H      -2.232095    1.636234    0.101739
H      -1.560673    4.180973    0.068129
H       1.044596    4.335780   -0.577952
H       2.362513    3.410651    1.331743
H       2.069218    1.842981   -0.560750
