21

C      -0.180848    1.507968    0.086822
C      -0.029392   -0.008471   -0.036676
O       0.653167   -0.360796   -1.240580
C       0.643678   -0.627852    1.193861
C       0.752811   -2.150286    1.114567
N       1.490009   -2.680137    2.256672
C       0.700740   -3.021148    3.435693
C       1.273269   -4.087051    2.567570
H       0.798386    1.986097    0.216204
H      -0.644559    1.917503   -0.814636
H      -0.797836    1.777315    0.950239
H      -1.025180   -0.454738   -0.157931
H       1.530438    0.037189   -1.202038
H       1.651146   -0.205191    1.311309
H       0.083000   -0.342876    2.093250
H      -0.259594   -2.591398    1.037751
H       1.289164   -2.426918    0.201573
H       1.150691   -2.786774    4.396303
H      -0.377638   -2.871779    3.389020
H       0.575729   -4.645584    1.944715
H       2.151005   -4.645398    2.880814
