15

C      -0.019085    1.452053   -0.019818
N      -0.017885   -0.006038   -0.016449
C      -1.158314   -0.718589   -0.129055
C      -1.159000   -2.080350   -0.126397
C       0.127099   -2.667531    0.003290
F       0.174243   -3.994454    0.011215
N       1.241747   -2.042231    0.113265
C       1.243232   -0.655124    0.110131
N       2.274515    0.092639    0.211057
H       0.595410    1.821453   -0.843857
H      -1.045915    1.807005   -0.123105
H       0.420548    1.825450    0.907734
H      -2.069245   -0.138735   -0.221095
H      -2.060010   -2.666642   -0.215013
H       3.097030   -0.501238    0.294268
