14

O      -0.017640   -0.026373    0.021592
C      -0.055816    1.169903   -0.016879
C      -1.232091    2.119139   -0.022788
C      -1.129788    3.018561    1.272065
C      -0.358944    4.054721    0.444313
C      -0.685904    3.342637   -0.815029
N       0.719539    3.431900   -0.376491
C       1.176403    2.133386    0.007217
O       2.294683    1.850070    0.317376
H      -2.197356    1.679823   -0.256888
H      -2.117423    3.396700    1.543346
H      -0.648877    2.593411    2.157784
H      -0.246025    5.111069    0.652492
H      -0.953019    3.687572   -1.805366
