18

C      -0.133711    1.591041    0.044992
C       0.028847    0.079116    0.029962
C       1.094372   -0.539373   -0.950454
O       1.958926    0.342693   -1.624798
C       1.790936   -1.256568    0.239172
C       0.760976   -0.605052    1.222890
N       1.882318    0.132391    1.803976
C       2.845957   -0.369766    0.945214
O       4.021956   -0.166398    0.841206
H       0.830531    2.091954    0.160191
H      -0.581273    1.947148   -0.889565
H      -0.790695    1.907627    0.862612
H      -0.941246   -0.404591   -0.127322
H       0.640208   -1.256443   -1.646520
H       1.483292    0.730676   -2.366095
H       1.992490   -2.322517    0.162138
H       0.167016   -1.172715    1.940357
H       1.900030    0.971415    2.367076
