17

C      -0.037671   -1.146769   -0.009828
C      -0.002969    0.054864    0.000077
C       0.010152    1.498045    0.013001
C      -0.623486    2.163918    1.265603
O      -0.157885    3.523148    1.195964
C       0.639120    3.590410    0.025364
C       1.370952    2.248174    0.005445
O      -0.182448    3.544253   -1.129169
C      -0.649683    2.186424   -1.213631
H      -0.060662   -2.208440   -0.019183
H      -1.718019    2.138453    1.235888
H      -0.278225    1.694624    2.193884
H       1.198299    4.523808    0.027930
H       1.972366    2.062735    0.896379
H       1.953384    2.079060   -0.901209
H      -0.324207    1.734133   -2.157370
H      -1.743348    2.160219   -1.161257
