18

C      -0.299302    1.506913    0.065691
C      -0.007297    0.012133    0.014299
C       0.804824   -0.506460   -1.249417
N       1.775457   -1.016009   -0.274680
N       3.060344   -1.405313   -0.106354
C       3.244401   -1.157929    1.201193
N       4.476332   -1.430413    1.798752
C       2.109094   -0.564562    1.843138
C       1.191480   -0.498464    0.814268
H       0.607999    2.092623   -0.111490
H      -1.043295    1.785465   -0.687798
H      -0.694153    1.788641    1.046785
H      -0.924350   -0.562162    0.179939
H       0.336499   -1.274800   -1.871402
H       1.193197    0.300895   -1.878326
H       5.043199   -2.030970    1.213724
H       4.393272   -1.820021    2.727897
H       2.026628   -0.258274    2.872419
