16

C       0.011009    1.536042   -0.003824
C      -0.005495    0.039181   -0.011985
C      -0.131578   -0.802724   -1.102061
N      -0.099719   -2.097608   -0.680467
C       0.048441   -2.134081    0.700498
C       0.119164   -3.302107    1.470733
C       0.184726   -4.282414    2.174411
C       0.107247   -0.808294    1.118266
O       0.248656   -0.355254    2.388745
H       0.944740    1.927123    0.415843
H      -0.093449    1.934307   -1.017018
H      -0.804285    1.945410    0.603334
H      -0.241522   -0.560403   -2.147537
H      -0.170942   -2.912543   -1.262456
H       0.241605   -5.148149    2.785866
H       0.304335   -1.118791    2.976293
