21

C      -0.059817    1.595141    0.172245
C      -0.048606    0.065995   -0.000303
C       0.920215   -0.595849    0.995470
C      -1.433735   -0.511745    0.111202
N      -1.983087   -1.146867   -0.921455
N      -3.202882   -1.525368   -0.478273
C      -3.453926   -1.154089    0.803837
C      -4.737829   -1.467699    1.500401
C      -2.318469   -0.489314    1.220211
H       0.946504    2.007553    0.042409
H      -0.720985    2.069676   -0.558730
H      -0.408720    1.877145    1.171997
H       0.293641   -0.162563   -1.015979
H       0.612699   -0.407274    2.030184
H       0.956254   -1.679406    0.849666
H       1.933854   -0.199694    0.872094
H      -3.810137   -2.031105   -1.100582
H      -4.903910   -2.548080    1.584777
H      -4.725387   -1.053944    2.510719
H      -5.601377   -1.041914    0.976295
H      -2.157528   -0.050534    2.192300
