19

C      -0.944328    1.103143    0.019094
C       0.114779    0.018691    0.134243
C       1.246927   -0.037975   -0.936088
C       2.231066   -0.368332    0.196566
C       1.220556    0.165566    1.223408
C       2.868922   -1.762365    0.335772
C       4.183440   -0.985576    0.278593
O       5.349192   -1.213216    0.314237
O       3.568228    0.234227    0.156105
H      -0.483299    2.093313   -0.068615
H      -1.575860    0.949085   -0.862671
H      -1.597357    1.115109    0.898574
H      -0.362780   -0.963177    0.220953
H       1.158225   -0.750343   -1.759987
H       1.458321    0.955574   -1.343338
H       1.424319    1.218177    1.442878
H       1.110303   -0.380551    2.163484
H       2.696073   -2.282937    1.279655
H       2.717773   -2.450447   -0.498185
