20

O       0.096300    1.474840   -0.021695
C       0.077258    0.062529    0.105262
C      -1.350122   -0.521387    0.057875
C      -2.035426   -0.226613   -1.259496
C      -2.183697   -1.316748   -2.012222
C      -1.661548   -2.555904   -1.329617
C      -1.379893   -2.061230    0.094948
C      -0.636623   -2.860568    1.098515
N      -2.107677   -2.766848    1.163799
H      -0.169859    1.690624   -0.920955
H       0.695050   -0.420183   -0.667682
H       0.538062   -0.152006    1.074584
H      -1.904194   -0.093573    0.904850
H      -2.343889    0.774273   -1.541586
H      -2.621554   -1.336343   -3.004219
H      -2.383088   -3.379764   -1.311797
H      -0.756452   -2.934096   -1.825363
H      -0.252626   -3.842453    0.832636
H      -0.047768   -2.341297    1.850384
H      -2.374255   -2.110784    1.895130
