14

O      -0.656027    0.770281   -0.488490
C       0.193430    0.958221    0.345876
C       1.333089    1.935445    0.208096
C       1.287650    3.012215   -0.898739
C       1.268723    4.033872    0.237260
C       0.148020    3.790620    1.159246
N       1.372483    2.968382    1.324724
H       0.178468    0.421941    1.322037
H       2.274089    1.374864    0.236608
H       2.197305    3.038404   -1.499687
H       0.417296    2.995117   -1.558775
H       1.875146    4.932095    0.282584
H       0.011748    4.482053    1.984391
H      -0.768688    3.333128    0.793752
