19

C       0.109533    1.485277    0.005365
O      -0.111480    0.094950   -0.068058
C       0.586089   -0.551623   -1.119385
C       2.035505   -0.841418   -0.771327
C       2.365606   -2.125430   -0.935808
C       1.187680   -2.904930   -1.385689
O       1.155418   -4.081613   -1.661256
C      -0.017144   -1.946403   -1.424734
C      -1.105012   -2.412687   -0.447953
H       1.154155    1.737059    0.241301
H      -0.160625    1.987535   -0.936692
H      -0.526873    1.868698    0.806294
H       0.546068    0.089291   -2.016301
H       2.706340   -0.058565   -0.433938
H       3.334065   -2.580963   -0.770452
H      -0.426700   -1.972074   -2.440120
H      -0.745456   -2.394944    0.583972
H      -1.983890   -1.767532   -0.505119
H      -1.391368   -3.436773   -0.700501
