22

C      -0.796997    1.456830    0.469851
N      -1.114973    0.045080    0.533137
C      -0.783832   -0.821226   -0.462306
O      -0.190577   -0.492266   -1.477631
C      -1.161961   -2.292949   -0.214970
C       0.004967   -2.991568    0.508734
C      -2.531257   -2.492893    0.475315
C      -3.053150   -3.925854    0.380988
O      -2.526471   -2.047541    1.842274
H      -0.145284    1.756995    1.298713
H      -0.278567    1.635447   -0.472883
H      -1.703202    2.072588    0.502837
H      -1.607990   -0.329884    1.332463
H      -1.240370   -2.717647   -1.220765
H       0.931948   -2.825469   -0.045432
H       0.150170   -2.589944    1.517514
H      -0.150341   -4.072042    0.584486
H      -3.253679   -1.828055   -0.011267
H      -2.379127   -4.634164    0.876074
H      -4.032354   -3.997856    0.861825
H      -3.155262   -4.237007   -0.663060
H      -1.993955   -2.667470    2.352918
