25

C       0.089162    1.567612    0.056742
C       0.005967    0.039644    0.047149
O       0.726225   -0.497136    1.159345
C      -1.432494   -0.514182   -0.001064
C      -2.229868   -0.012477   -1.219676
C      -3.649149   -0.600918   -1.264586
C      -3.635595   -2.134060   -1.215937
C      -2.850924   -2.637520    0.002454
C      -1.432453   -2.053793    0.034667
H       1.129351    1.874578    0.195280
H      -0.276144    2.007921   -0.874797
H      -0.503457    1.986908    0.880327
H       0.550172   -0.339121   -0.828471
H       0.315773   -0.153150    1.960876
H      -1.946238   -0.152223    0.906933
H      -2.289973    1.080716   -1.219129
H      -1.691506   -0.295020   -2.136603
H      -4.221923   -0.218966   -0.407749
H      -4.168632   -0.250870   -2.163995
H      -4.660293   -2.522633   -1.200734
H      -3.168480   -2.521813   -2.132147
H      -3.384385   -2.349667    0.919629
H      -2.805955   -3.732623    0.002321
H      -0.871748   -2.423039   -0.836971
H      -0.887074   -2.398489    0.916833
