23

C      -0.894048    0.985606   -0.032875
C       0.148415   -0.122949    0.012675
C       1.518953    0.116162   -0.680883
C       2.215002   -0.620774    0.500258
C       2.555412   -2.077355    0.201111
O       3.323112    0.039564    1.093680
C       0.912697   -0.449012    1.341262
C       0.979440    0.662867    2.375905
O      -0.296161    0.731433    3.006926
H      -0.484673    1.940646    0.311092
H      -1.250212    1.130607   -1.059384
H      -1.752973    0.749756    0.600986
H      -0.301615   -1.046081   -0.368409
H       1.663543   -0.286124   -1.688175
H       1.792023    1.175760   -0.677251
H       3.371164   -2.141518   -0.530714
H       2.871390   -2.589211    1.115446
H       1.696915   -2.612311   -0.216819
H       4.083943   -0.075100    0.514323
H       0.575693   -1.356143    1.853113
H       1.772292    0.431774    3.100720
H       1.245558    1.621207    1.906820
H      -0.269618    1.443705    3.652339
