11

C       0.019460    1.446372    0.013787
N      -0.025965   -0.005487    0.030567
N      -0.258398   -0.729245   -1.063913
N      -0.229697   -1.978829   -0.693168
C       0.024801   -1.961141    0.641276
N       0.157598   -0.723889    1.121711
C       0.138359   -3.129940    1.443583
N       0.229813   -4.083609    2.089713
H       1.002313    1.783948    0.346980
H      -0.164180    1.762034   -1.011944
H      -0.749816    1.842663    0.678730
