14

C      -0.004022    1.553386    0.087226
C       0.015481    0.058838    0.030211
C       0.000493   -0.741067   -1.109659
N       0.028877   -2.034401   -0.664282
N       0.060930   -2.131500    0.669114
C       0.052919   -0.868601    1.093110
C      -0.035710   -0.409320   -2.478576
C      -0.066780   -0.128538   -3.649877
H       0.885690    1.948843    0.589635
H      -0.036632    1.978875   -0.918935
H      -0.876625    1.923965    0.636379
H       0.027484   -2.867820   -1.228225
H       0.074359   -0.662050    2.153629
H      -0.094390    0.122293   -4.681342
