16

N       0.147078    1.398086   -0.026768
C       0.025273   -0.021819    0.062925
C      -0.488168   -0.688876    1.317310
N      -1.263862    0.088646    2.235408
C      -2.328943    0.462783    1.617864
N      -2.454721    0.070917    0.303657
C      -1.317788   -0.764815   -0.015905
C      -1.521996   -1.906264   -0.839940
C      -1.688626   -2.866286   -1.547459
H      -0.403092    1.773376   -0.792189
H      -0.179506    1.837546    0.827670
H       0.822688   -0.582410   -0.419529
H       0.060547   -1.528136    1.729235
H      -3.098068    1.082211    2.067635
H      -3.353934   -0.134319   -0.104025
H      -1.832677   -3.717299   -2.165863
