19

C      -0.081614    1.651553   -0.042238
C       0.083059    0.141518    0.061004
C       1.119762   -0.622411   -0.816003
O       2.353772    0.068613   -0.907436
C       2.890320    0.422308    0.370496
C       2.270951   -0.478795    1.422169
O       2.466192   -1.838453    0.927029
C       1.175161   -1.731074    0.327075
C       0.707799   -0.601754    1.266040
H       0.869541    2.184880   -0.011096
H      -0.571076    1.917795   -0.985278
H      -0.709543    2.029290    0.772302
H      -0.895792   -0.330633   -0.100178
H       0.849313   -0.911250   -1.832548
H       3.971502    0.251869    0.326219
H       2.717567    1.483851    0.595486
H       2.681755   -0.333560    2.424304
H       0.671866   -2.683064    0.150814
H       0.153695   -0.761680    2.191441
