16

O      -0.120258   -0.088348   -0.081105
C      -0.007314    1.110195    0.009533
N      -1.067129    2.009781    0.045614
C      -0.753473    3.412390    0.354359
C       0.711343    3.251765    0.677546
C       2.138204    3.835060    0.771453
C       2.145643    2.322809    1.197953
O       0.938574    2.583529    1.994902
C       1.244003    1.992115   -0.020083
H      -2.004784    1.646297    0.119192
H      -0.928853    4.073712   -0.503512
H      -1.325180    3.780587    1.212372
H       2.635825    4.118275   -0.159058
H       2.315203    4.535484    1.587922
H       2.947851    1.747392    1.658045
H       1.679086    2.082141   -1.018960
