21

C      -0.000140    1.520257    0.021108
C      -0.032450    0.005061   -0.009417
C       1.266700   -0.718222   -0.276522
C       0.650283   -0.733166    1.118044
C       0.504629   -2.260843    1.266891
O       1.817842   -2.724215    0.779192
C       1.290825   -2.241783   -0.511781
C      -0.097640   -2.774373   -0.068017
C      -0.270013   -4.284591   -0.160398
H       0.941544    1.888602    0.441221
H      -0.101210    1.936002   -0.987124
H      -0.816947    1.918637    0.632430
H      -0.953445   -0.393623   -0.420783
H       2.159381   -0.147188   -0.505470
H       1.077365   -0.173418    1.942459
H       0.231485   -2.667346    2.241248
H       1.830686   -2.628578   -1.376745
H      -0.986752   -2.274252   -0.455656
H       0.611669   -4.800874    0.223854
H      -1.143289   -4.610197    0.415600
H      -0.429196   -4.592894   -1.199637
