18

O      -0.263679    0.095502   -0.118994
C      -0.020823    1.247996    0.147438
C       1.315432    1.898103    0.026392
C       1.644280    3.068886    0.990118
C       2.049724    3.977431   -0.205810
C       1.623047    2.871115   -1.206702
C       2.747981    1.910576   -1.658982
C       2.508087    1.011417   -0.409841
H      -0.833482    1.935479    0.485014
H       0.755316    3.435104    1.513900
H       2.413736    2.852829    1.736071
H       1.469997    4.900277   -0.278965
H       3.110232    4.240183   -0.257607
H       0.861069    3.138957   -1.939826
H       2.522016    1.399928   -2.598041
H       3.737435    2.368499   -1.748069
H       3.328282    0.971596    0.311591
H       2.193767   -0.006837   -0.644264
