18

C      -0.089406    1.482120   -0.018957
C       0.088655   -0.019404   -0.047503
C       1.486602   -0.630760   -0.126090
C       0.689308   -0.718453    1.128570
O       1.061176   -0.029242    2.323368
C       0.448613   -1.041073    3.145179
C       0.177842   -1.941976    1.906560
C      -1.187972   -2.370803    1.664175
N      -2.277337   -2.699807    1.460335
H       0.669387    1.951978    0.612684
H      -0.012128    1.906581   -1.025012
H      -1.070065    1.751017    0.386739
H      -0.693042   -0.571948   -0.564082
H       1.638617   -1.528659   -0.716742
H       2.330229    0.052791   -0.110976
H       1.144557   -1.451730    3.881953
H      -0.456969   -0.680145    3.643637
H       0.850591   -2.801217    1.849372
