20

C      -0.050419    1.462438   -0.538605
C       0.006016    0.135183    0.224789
C      -1.346056   -0.566769    0.270438
N      -1.737274   -1.291992   -0.969144
C      -1.510105   -2.061393    0.264300
C      -0.381675   -3.066424    0.202382
O      -0.736905   -4.154940   -0.634312
C      -2.387491    0.167307    0.952036
C      -3.250501    0.789777    1.513983
H       0.935332    1.935785   -0.565101
H      -0.377035    1.296467   -1.569732
H      -0.749861    2.159822   -0.068402
H       0.730046   -0.527514   -0.254748
H       0.348916    0.302222    1.252612
H      -2.732920   -1.173838   -1.137017
H      -2.395300   -2.430647    0.778154
H       0.547328   -2.591827   -0.138447
H      -0.198254   -3.487512    1.196224
H      -0.941765   -3.772952   -1.496024
H      -4.013544    1.334166    2.013245
