18

C      -0.032327    1.487924   -0.022626
C      -0.007761   -0.006798   -0.065963
C       0.154492   -0.778877   -1.145484
C       0.083869   -2.249242   -0.830714
C      -0.218496   -2.274770    0.691568
C      -0.176067   -0.832545    1.197063
O      -1.579422   -2.746244    0.404444
C      -1.313191   -2.841824   -0.949005
N      -2.017284   -3.273648   -1.890890
H       0.738792    1.877357    0.654357
H       0.129522    1.923591   -1.011861
H      -0.994016    1.854305    0.358250
H       0.283045   -0.412956   -2.157425
H       0.891904   -2.858942   -1.239091
H       0.299036   -3.005254    1.314833
H       0.653535   -0.670344    1.898295
H      -1.098143   -0.590782    1.740406
H      -2.929605   -3.590809   -1.557929
