19

C      -0.515671    1.376732    0.043745
C       0.119201    0.001880   -0.102917
C       1.491678   -0.092883   -0.856198
C       1.997833   -0.970286    0.288855
O       2.911967   -1.736743    0.442060
C       0.766308   -0.637537    1.171267
O       1.058382    0.336298    2.152570
C       0.148747   -1.871200    1.817526
O       1.040343   -2.347530    2.819576
H       0.178420    2.078244    0.512523
H      -0.803581    1.772263   -0.935645
H      -1.413811    1.332917    0.667453
H      -0.596314   -0.703935   -0.538792
H       1.518717   -0.529375   -1.857480
H       2.017397    0.868792   -0.877867
H       1.379665   -0.165819    2.915783
H      -0.785716   -1.608613    2.325374
H      -0.070398   -2.641840    1.064273
H       1.855149   -2.602995    2.363956
