21

C       0.491527    1.111525    0.430997
O      -0.206091    0.036281   -0.182093
C       0.492170   -0.500204   -1.271557
C       1.293395   -1.746596   -0.974350
O       1.297968   -2.206288    0.345323
C       0.014005   -1.834338   -1.794746
C      -1.218954   -2.522730   -1.246711
C      -1.115748   -4.047202   -1.356901
O      -2.299990   -4.707502   -0.935931
H       1.477607    0.799026    0.800141
H       0.628901    1.944503   -0.272792
H      -0.119841    1.451833    1.269657
H       0.860137    0.246387   -1.974930
H       2.249828   -1.914082   -1.459456
H       0.696473   -1.628574    0.834130
H       0.164517   -1.967028   -2.864116
H      -1.368875   -2.247966   -0.197606
H      -2.111415   -2.184594   -1.785686
H      -0.972501   -4.339624   -2.403386
H      -0.235847   -4.393256   -0.795261
H      -2.404534   -4.543973    0.006670
