21

C       0.010303    1.547800   -0.401219
C      -0.001596    0.127477    0.174286
C      -1.386312   -0.520361    0.130363
C      -1.845756   -1.196031   -1.158019
C      -1.562649   -2.037870    0.051572
C      -0.407054   -3.004599    0.089729
O      -0.856347   -4.218561   -0.500592
C      -2.389557    0.176727    0.896063
C      -3.212897    0.763793    1.548849
H       1.013101    1.981752   -0.343157
H      -0.298862    1.548362   -1.451681
H      -0.675267    2.198408    0.148998
H       0.705526   -0.493755   -0.383754
H       0.349447    0.148202    1.213048
H      -2.873330   -1.059540   -1.472121
H      -1.123026   -1.225462   -1.967848
H      -2.435365   -2.411369    0.578180
H       0.458457   -2.601629   -0.455925
H      -0.091195   -3.166847    1.132751
H      -0.154928   -4.870557   -0.409805
H      -3.945123    1.277943    2.120231
