17

C      -0.029818    1.505763    0.128808
C      -0.057770   -0.016498   -0.044264
N      -1.387779   -0.595222    0.013394
C      -2.215908   -0.617841    1.200514
C      -3.465211   -1.332571    0.652277
O      -3.404189   -1.150002   -0.766427
C      -2.134127   -0.783519   -1.125406
O      -1.778538   -0.663201   -2.267311
H       0.999412    1.871312    0.061354
H      -0.617178    1.991624   -0.655576
H      -0.427684    1.813714    1.101124
H       0.346553   -0.288439   -1.022271
H       0.563041   -0.498722    0.720595
H      -1.745231   -1.174228    2.018140
H      -2.446773    0.393303    1.565559
H      -3.444174   -2.405797    0.872670
H      -4.402450   -0.910856    1.019648
