12

O      -0.161592    1.461329   -0.008623
C      -0.045762    0.108226    0.006253
C      -0.251769   -0.794749   -1.210875
C      -1.123222   -0.977049   -0.004169
O      -0.392273   -1.754833    0.977328
C       0.559390   -0.737442    1.120169
O       1.449212   -0.682396    1.894829
C      -2.539599   -0.903000    0.071996
N      -3.693215   -0.832375    0.111384
H       0.447000    1.831432   -0.658303
H      -0.714846   -0.277649   -2.046574
H       0.452415   -1.581230   -1.462036
