17

C       0.001723    1.474462   -0.028968
C       0.040462   -0.023487   -0.087109
C       0.555262   -0.972982   -1.191946
C       0.065408   -1.965856   -0.107396
C       0.077549   -3.394392   -0.108830
C       0.093499   -4.597463   -0.122751
C       0.504075   -0.995102    1.051805
O      -0.784207   -1.010136    1.726723
C      -1.112398   -1.008114    0.309793
H       1.007544    1.900794   -0.106808
H      -0.600353    1.887863   -0.845116
H      -0.436571    1.800628    0.919851
H      -0.000965   -0.979871   -2.133495
H       1.631847   -0.966731   -1.383982
H       0.104231   -5.659191   -0.127502
H       1.415413   -1.007897    1.649874
H      -2.159749   -1.036682    0.008754
