21

O      -0.006409    1.284358   -0.488339
C      -0.010398   -0.015808    0.097172
C      -1.420551   -0.529996    0.094180
C      -1.966537   -1.141862   -1.189604
C      -1.727026   -2.007605    0.021676
O      -0.671080   -2.925408    0.009896
C      -2.912096   -2.298789    0.932254
C      -3.585878   -0.925653    1.146944
C      -2.443524    0.111590    1.024048
H       0.889039    1.630714   -0.429984
H       0.635497   -0.710977   -0.457737
H       0.363323    0.023630    1.133731
H      -2.977237   -0.915014   -1.513988
H      -1.248366   -1.245779   -1.996104
H      -0.906866   -3.642782   -0.587796
H      -3.601265   -3.045929    0.521554
H      -2.517951   -2.698870    1.874019
H      -4.339871   -0.750851    0.372885
H      -4.104534   -0.862088    2.106912
H      -1.971400    0.280889    2.000559
H      -2.795096    1.083371    0.665251
