21

C       0.272190    1.588693    0.202104
C       0.026854    0.094796    0.097801
C       0.654760   -0.775609   -1.061822
C       2.048001   -1.511255   -0.839424
C       3.061823   -1.138461    0.258026
C       2.096327   -0.563866    1.293114
C       0.834702   -0.897865    0.955142
C       0.808008   -1.967175   -0.161500
C       0.123457   -3.299827   -0.143795
H       1.339283    1.823108    0.144583
H      -0.239173    2.115314   -0.611148
H      -0.113018    1.988379    1.146751
H      -1.052421   -0.108190    0.079113
H       0.247925   -0.789255   -2.072425
H       2.390302   -2.017952   -1.741777
H       3.659985   -2.017303    0.541440
H       3.772898   -0.350655   -0.020950
H       2.341425    0.364628    1.800694
H      -0.924871   -3.209600    0.163161
H       0.142579   -3.759067   -1.137936
H       0.611491   -3.991381    0.552611
