19

C      -0.157191    1.395907   -0.092103
C      -0.001297   -0.054733    0.227944
C      -0.988681   -0.928122    0.482513
C      -2.235745   -1.162338   -0.366889
C      -1.405826   -2.385701   -0.919608
O      -0.226302   -2.050951   -1.706894
C       0.686143   -2.172934   -0.553946
C       1.281546   -0.821890   -0.111614
C      -0.530799   -2.383688    0.345355
H       0.451094    2.020867    0.574976
H       0.179346    1.613522   -1.114580
H      -1.196912    1.719779    0.009331
H      -3.115721   -1.552168    0.158962
H      -2.534889   -0.366028   -1.052692
H      -1.950530   -3.236127   -1.340599
H       1.407430   -2.980169   -0.720656
H       1.821550   -0.321058   -0.923505
H       1.996288   -0.960389    0.712432
H      -0.591627   -3.086184    1.174184
