17

O      -0.248490    0.580655    1.203062
C      -0.147628    1.325111    0.257181
C      -1.335552    1.713802   -0.613650
C      -1.352125    3.203414   -0.874773
C      -0.256299    3.961552   -0.878473
C       1.111150    3.400639   -0.668222
O       1.776874    3.900246    0.524942
C       1.994626    2.562584    1.025717
C       1.178884    1.952064   -0.129779
H      -1.275127    1.157373   -1.561761
H      -2.248845    1.380184   -0.114044
H      -2.325227    3.653310   -1.053198
H      -0.323475    5.032018   -1.053222
H       1.744801    3.583754   -1.548333
H       3.058863    2.299074    1.032715
H       1.574922    2.410517    2.025065
H       1.717162    1.243845   -0.766866
