20

C       0.039277    1.307501   -0.612347
C      -0.081334    0.219546    0.470345
C      -1.405573   -0.391973    0.523852
C      -2.508901   -0.874407    0.554686
C      -3.828179   -1.494548    0.583049
C      -3.838491   -2.897116   -0.055242
C      -5.244849   -3.525515   -0.010006
C      -5.283780   -4.857038   -0.609690
N      -5.297376   -5.909011   -1.087666
H       1.046605    1.734315   -0.613636
H      -0.160618    0.892580   -1.603969
H      -0.676814    2.114263   -0.433979
H       0.670975   -0.559500    0.291840
H       0.160180    0.649867    1.450797
H      -4.183523   -1.565277    1.620426
H      -4.551391   -0.853070    0.060664
H      -3.498939   -2.831189   -1.092956
H      -3.129899   -3.544809    0.469045
H      -5.594524   -3.601825    1.026604
H      -5.964249   -2.887020   -0.536750
