20

C      -0.144273    1.479487   -0.057087
C       0.027639   -0.015113    0.055777
N       1.411031   -0.537102   -0.074959
C       0.706328   -0.656175    1.199856
C       1.284036   -0.090413    2.521168
C       0.877071   -1.420195    3.178770
O      -0.537587   -1.571410    2.986146
C       0.343387   -1.959127    1.913030
C       0.228333   -3.338267    1.352818
H       0.684664    1.999948    0.429660
H      -0.168586    1.792108   -1.106527
H      -1.080001    1.798222    0.414494
H      -0.760278   -0.602999   -0.415224
H       1.409973   -1.427297   -0.568883
H       2.365104    0.053695    2.453127
H       0.809398    0.799470    2.941295
H       1.319605   -1.927137    4.028952
H      -0.645604   -3.425086    0.696717
H       1.117836   -3.602383    0.771101
H       0.115283   -4.065130    2.161128
