22

C       0.006924    1.549852   -0.058201
C       0.098830    0.021940   -0.028487
C       0.708098   -0.517153    1.270064
C       0.803463   -2.045592    1.303365
C       1.417216   -2.600955    2.582199
C       1.598663   -4.144209    2.605182
N       3.052149   -4.367058    2.705380
C       3.568893   -3.212311    2.760339
O       2.785490   -2.109815    2.724729
H       0.997086    2.007241    0.045485
H      -0.428077    1.906233   -0.997112
H      -0.616413    1.925162    0.761127
H      -0.901872   -0.408979   -0.167344
H       0.698123   -0.326053   -0.880290
H       1.710206   -0.095083    1.410827
H       0.108307   -0.172152    2.124186
H      -0.197416   -2.486186    1.196262
H       1.394101   -2.406132    0.450478
H       0.866935   -2.235888    3.456228
H       1.092583   -4.615699    3.453718
H       1.212862   -4.613897    1.692938
H       4.630404   -3.003198    2.838518
