20

C       0.097331    1.574104    0.411822
C      -0.044246    0.123425   -0.060620
O       0.830298   -0.730481    0.693581
C      -1.463478   -0.370320   -0.036067
C      -2.089936   -1.090649   -1.030680
N      -3.367324   -1.386652   -0.628602
C      -4.313117   -2.198976   -1.364643
C      -3.566449   -0.872210    0.628135
C      -2.413555   -0.235324    1.023054
H       1.148926    1.872408    0.383463
H      -0.482292    2.252401   -0.222541
H      -0.258398    1.687034    1.441750
H       0.328884    0.054839   -1.089714
H       0.351782   -0.990513    1.487422
H      -1.725552   -1.415339   -1.993209
H      -4.176009   -3.267862   -1.163388
H      -5.331441   -1.919086   -1.085137
H      -4.191475   -2.027601   -2.437003
H      -4.515067   -0.997206    1.126499
H      -2.278833    0.293323    1.954869
