21

C       0.063366    1.600740    0.044570
C      -0.033279    0.078266    0.060968
O      -1.385633   -0.373413    0.078091
C       0.699975   -0.557217   -1.120345
O       2.076442   -0.197677   -1.086523
C       2.698260   -1.119510   -1.944351
O       2.033907   -2.353728   -1.789186
C       0.752114   -2.106282   -1.185705
C       0.675389   -2.843186    0.145263
H       1.107506    1.920747    0.079436
H      -0.381325    2.007684   -0.873004
H      -0.470315    2.021272    0.901051
H       0.405822   -0.300906    0.988602
H      -1.849732    0.057549   -0.648384
H       0.245550   -0.179534   -2.055948
H       2.627085   -0.779367   -2.994307
H       3.749950   -1.219194   -1.655571
H      -0.026621   -2.480241   -1.860471
H       1.430270   -2.468617    0.843064
H      -0.316080   -2.729336    0.590992
H       0.868388   -3.906684   -0.019459
