19

C       0.356010    1.247867    0.028315
C      -0.144674   -0.214741   -0.004587
C       0.477628   -0.988417   -1.223770
C       1.677537   -1.719032   -0.664116
O       2.558124   -0.895755    0.116380
C       1.609518   -1.728750    0.800983
C       0.362496   -1.004825    1.256687
C      -1.604558   -0.221779   -0.072355
C      -2.805984   -0.222493   -0.128166
H       1.445797    1.264155    0.079004
H       0.030870    1.782862   -0.868902
H      -0.051149    1.771180    0.898545
H      -0.233052   -1.721277   -1.619083
H       0.734963   -0.303997   -2.037614
H       2.164991   -2.501737   -1.240308
H       2.041989   -2.519299    1.409449
H       0.542927   -0.331359    2.099829
H      -0.381320   -1.742381    1.574749
H      -3.866618   -0.222908   -0.177324
