19

C      -0.218809    1.097339   -0.124070
O       0.590702   -0.049881    0.096046
C       0.931595   -0.699013   -1.086047
C       1.412692   -2.116517   -0.964566
C       0.045055   -1.821427   -1.575066
N      -1.168647   -2.061215   -0.836730
C      -0.131688   -1.996393   -3.078077
C      -0.387138   -3.393213   -3.439073
N      -0.591023   -4.502158   -3.692600
H       0.301212    1.833362   -0.754200
H      -1.171311    0.832085   -0.600438
H      -0.412158    1.542268    0.854240
H       1.401043   -0.053975   -1.831761
H       2.234018   -2.439094   -1.595938
H       1.411210   -2.539447    0.033998
H      -1.339920   -3.058961   -0.744796
H      -1.068182   -1.682548    0.100070
H      -0.977822   -1.389443   -3.418116
H       0.761952   -1.658400   -3.613852
