17

C       0.111258    1.313658    0.743806
C      -0.085134   -0.036040    0.085432
C      -1.343363   -0.411781   -0.568984
O      -0.210386   -0.010808   -1.346928
C       1.427368    1.929512    0.381710
N       2.306216    2.452619    1.210136
C       3.334596    2.907521    0.415185
C       3.073365    2.653084   -0.904821
N       1.846422    2.029933   -0.914555
H      -0.713974    1.974589    0.448118
H       0.076221    1.213497    1.832006
H       0.563880   -0.833508    0.447636
H      -1.617917   -1.461015   -0.660750
H      -2.177312    0.288554   -0.563639
H       4.201536    3.389954    0.840186
H       3.624018    2.846025   -1.810327
H       1.347951    1.656207   -1.707010
