18

C       0.092452    1.495540    0.043858
C      -0.035362   -0.028779   -0.051169
C      -1.488782   -0.497802   -0.013177
N       0.643497   -0.517740   -1.253429
C       0.163515   -1.045449   -2.391434
N       1.148292   -1.313463   -3.238194
C       2.238005   -0.910185   -2.536852
O       3.483510   -1.002844   -3.022385
N       2.005218   -0.419677   -1.332565
H       1.141756    1.789933   -0.018237
H      -0.455512    1.981048   -0.770492
H      -0.317495    1.848041    0.994981
H       0.505771   -0.477252    0.789059
H      -2.077967   -0.049334   -0.819855
H      -1.564937   -1.586341   -0.085976
H      -1.939105   -0.188484    0.933257
H      -0.884351   -1.224467   -2.570337
H       3.404136   -1.390070   -3.902377
