22

C       0.104011    1.319963    0.146278
O       0.092226   -0.082609    0.029825
C       0.678211   -0.539206   -1.173454
C       0.650566   -2.052326   -1.168356
C       1.298122   -2.838464   -2.345440
O       2.313384   -2.155353   -3.047198
C       1.798255   -3.811935   -1.249014
N       1.602595   -2.731230   -0.263227
C       1.179101   -3.065572    1.079460
H       1.129370    1.722532    0.140785
H      -0.456065    1.801349   -0.671217
H      -0.370550    1.574781    1.097100
H       0.122422   -0.158481   -2.047833
H       1.714324   -0.176890   -1.257391
H      -0.389025   -2.388236   -1.007155
H       0.619151   -3.236566   -3.099942
H       2.973853   -1.881443   -2.400369
H       1.114472   -4.666272   -1.107490
H       2.824048   -4.186480   -1.344650
H       1.985904   -3.584765    1.608284
H       0.942030   -2.146082    1.620106
H       0.284490   -3.717145    1.095302
