15

O       0.308107    1.355753    0.307958
C       0.126013    0.016418   -0.040980
C      -1.334517   -0.372368   -0.003132
O      -2.191318    0.429145    0.303644
C      -1.692418   -1.820963   -0.374486
O      -0.821644   -2.590268   -0.706403
C      -3.146850   -2.181053   -0.320901
C      -3.692259   -3.043150   -1.396126
O      -3.422350   -3.565330   -0.111624
H      -0.573899    1.708064    0.499313
H       0.510975   -0.198480   -1.050399
H       0.675066   -0.660812    0.632891
H      -3.802631   -1.479902    0.185452
H      -4.742822   -2.938079   -1.661547
H      -3.018791   -3.374684   -2.184155
