14

O      -0.115301    1.421390    0.301483
C       0.038547    0.051146   -0.025576
C      -1.331424   -0.592875    0.131575
C      -1.329833   -2.065705   -0.184583
O      -0.370810   -2.704637   -0.527574
C      -2.709432   -2.770459   -0.039554
F      -3.160192   -2.636893    1.217939
F      -3.604400   -2.194181   -0.857577
F      -2.634980   -4.058715   -0.330300
H       0.740444    1.850136    0.209214
H       0.394830   -0.087838   -1.056373
H       0.759517   -0.450745    0.635553
H      -1.707155   -0.455041    1.153344
H      -2.066696   -0.097303   -0.514937
