22

C       0.581222    1.552917   -0.676627
O      -0.230033    0.405024   -0.578934
C       0.446805   -0.779496   -0.904317
C       1.429932   -1.391206    0.138873
C       0.794578   -2.778211   -0.154960
C      -0.420421   -2.048040   -0.789846
N       1.558571   -3.502584   -1.160313
C       2.524727   -4.473847   -0.659286
C       1.256452   -4.922714   -1.299470
H       1.433008    1.517269    0.019654
H       0.977801    1.685604   -1.695830
H      -0.040827    2.415523   -0.425129
H       0.922795   -0.694946   -1.891629
H       2.504056   -1.298405   -0.033769
H       1.181108   -1.041542    1.144892
H       0.575662   -3.405183    0.724250
H      -1.218779   -1.887248   -0.060864
H      -0.834655   -2.473855   -1.705546
H       3.466576   -4.529935   -1.197508
H       2.607199   -4.601306    0.419265
H       0.495842   -5.348464   -0.646465
H       1.255854   -5.312334   -2.313411
