17

C      -0.337433    1.653804   -0.038104
N      -0.008765    0.245269   -0.027138
C      -0.968588   -0.572368    0.126165
N      -0.834520   -1.936205    0.158384
C       0.332248   -2.681773    0.041216
N       0.232090   -4.009415    0.107588
N       1.507120   -4.434780   -0.036723
C       2.389651   -3.422272   -0.189816
C       1.666688   -2.248841   -0.145191
H       0.206577    2.173151    0.760549
H      -0.017728    2.107358   -0.984495
H      -1.413511    1.860725    0.092532
H      -2.016690   -0.262018    0.248404
H      -1.669380   -2.483467    0.290411
H       1.691426   -5.422086   -0.020229
H       3.445255   -3.604759   -0.316443
H       2.009336   -1.234770   -0.229277
