20

O      -0.157146   -0.010796   -0.168272
C      -0.040109    1.158490    0.134551
N       1.143608    1.820723    0.220799
C       2.417045    1.170483    0.025853
C       3.035068    0.371703    1.203511
C       4.394989    1.097415    0.968750
C       3.744786    1.995863   -0.123833
C       3.909057    1.475036   -1.571914
C       2.666734    0.551681   -1.381731
H      -0.903511    1.817136    0.361564
H       1.135404    2.767475    0.567976
H       2.576471    0.639758    2.158873
H       3.020060   -0.716107    1.104801
H       4.768069    1.641342    1.839247
H       5.203360    0.462822    0.595685
H       3.793499    3.074874    0.039805
H       3.745811    2.249492   -2.325843
H       4.860517    0.982394   -1.790704
H       2.866992   -0.521414   -1.365042
H       1.854322    0.735468   -2.084648
