18

C      -0.104825    1.573039    0.016387
C       0.023054    0.068503    0.058195
C       1.326545   -0.662917   -0.167876
O       2.534052    0.058752   -0.048416
C       2.704268    0.470350    1.256462
O       3.632726    1.138571    1.622382
N       1.642061    0.009587    1.998085
C       1.443357    0.382502    3.379524
C       0.694380   -0.696964    1.196331
H       0.744422    2.073797    0.486316
H      -0.160611    1.925923   -1.018220
H      -1.013308    1.898363    0.533241
H      -0.821186   -0.473565   -0.362652
H       1.409767   -1.509026   -0.838009
H       2.339599    0.911226    3.707891
H       0.573936    1.040317    3.499964
H       1.298352   -0.504244    4.007302
H       0.240594   -1.577949    1.638373
