21

C      -0.195703    1.577058   -0.043393
C       0.008424    0.061860   -0.026462
O      -1.253123   -0.582762    0.147897
C       0.779509   -0.501564   -1.267744
C       1.924057   -1.286516   -0.589427
C       2.985320   -0.301957   -0.041264
C       2.248770    0.245683    1.218693
C       0.897337   -0.494578    1.117531
O       1.296001   -1.772217    0.603763
H       0.734594    2.124279   -0.217323
H      -0.887230    1.850658   -0.849378
H      -0.633859    1.918124    0.899823
H      -1.808199   -0.351990   -0.604484
H       0.124805   -1.178836   -1.821666
H       1.135926    0.277915   -1.946904
H       2.317726   -2.125034   -1.164174
H       3.902357   -0.829671    0.229584
H       3.246375    0.477146   -0.762766
H       2.758295   -0.060569    2.134728
H       2.160203    1.333066    1.237121
H       0.349504   -0.622121    2.050570
