19

C      -0.246328    1.499825    0.025541
C       0.059895   -0.003531   -0.034431
O       0.758672   -0.387982   -1.212675
C       2.112430    0.004843   -1.260969
C       2.864850   -0.287076    0.000783
C       2.263239   -0.554589    1.169175
C       2.985313   -0.898537    2.440597
C       0.785570   -0.448283    1.238914
O       0.168725   -0.630014    2.270480
H       0.667427    2.096917    0.111441
H      -0.780144    1.806929   -0.877760
H      -0.870539    1.710533    0.897733
H      -0.882915   -0.556569   -0.072632
H       2.556608   -0.548779   -2.096715
H       2.217497    1.076825   -1.512538
H       3.951287   -0.269339   -0.070075
H       4.068309   -0.896595    2.294306
H       2.730428   -0.191611    3.236405
H       2.681678   -1.886759    2.801498
