20

C       0.037506    1.511348   -0.071181
O       1.442781    1.558366    0.255136
C       1.491630    0.132332    0.445026
C       0.021766   -0.032485   -0.022566
C      -0.983409   -0.732773    0.915468
C      -1.095698   -2.190563    0.406889
C      -0.800552   -2.077121   -1.078347
N      -1.542805   -0.973255   -1.728410
C      -0.128260   -0.779309   -1.332124
H      -0.577170    2.001610    0.695962
H      -0.178694    1.966992   -1.044990
H       2.259041   -0.341453   -0.181640
H       1.675116   -0.138926    1.494011
H      -0.682871   -0.670820    1.964934
H      -1.953322   -0.237965    0.819970
H      -0.337212   -2.831745    0.872081
H      -2.075440   -2.630151    0.617358
H      -0.569891   -2.963875   -1.660065
H      -1.582098   -1.145565   -2.729962
H       0.621884   -0.653964   -2.107456
