18

C       0.056963    1.329622   -0.283943
C       1.499125    1.577594    0.202771
C       1.365654    0.192669    0.824978
O       0.028963    0.023065    0.344323
C       2.196157   -1.055395    0.864289
C       3.630825   -0.823450    1.399781
N       3.822981    0.634647    1.645033
C       3.108512   -0.217090    2.638578
C       1.647516   -0.418009    2.165351
H      -0.712911    1.989855    0.131491
H      -0.080216    1.254902   -1.368746
H       2.259070    1.658352   -0.573642
H       1.630083    2.389036    0.917803
H       1.865598   -1.957337    0.365261
H       4.477228   -1.478089    1.236520
H       4.776020    0.750087    1.990478
H       3.454804   -0.291175    3.661416
H       0.840171   -0.766039    2.796908
