14

O       0.007070   -0.004748    0.010379
C      -0.024748    1.183133   -0.028989
C      -1.060212    2.329158    0.059488
C      -0.028539    2.984798    1.014141
C       1.011475    2.347179    0.029170
C       0.612935    3.058137   -1.282958
O      -0.835352    3.012519   -1.192464
C       1.076796    4.447968   -1.381504
N       1.463453    5.534364   -1.451276
H      -2.124341    2.225129    0.247381
H      -0.052316    4.074590    1.062624
H      -0.002026    2.536259    2.008212
H       2.067482    2.214852    0.244739
H       0.947211    2.512519   -2.172606
