18

O      -0.096918   -0.044819   -0.036113
C      -0.026408    1.165202   -0.031604
N       1.128778    1.890679   -0.077577
C       2.424726    1.229687   -0.103127
C       3.272177    1.644947    1.117286
C       3.310595    3.159309    1.274530
O       4.334826    3.777506    1.439553
C       1.945829    3.837421    1.197693
C       1.146008    3.339420   -0.025450
H      -0.918086    1.822043    0.009090
H       2.240622    0.154875   -0.115053
H       2.952932    1.500192   -1.027576
H       2.817057    1.218763    2.020824
H       4.294598    1.269449    1.037140
H       1.388600    3.583779    2.108851
H       2.087742    4.919953    1.167881
H       1.600668    3.738265   -0.943247
H       0.115409    3.703986    0.012009
