23

C      -0.129716    1.553156    0.138646
C       0.165616    0.074895    0.019711
C       1.585080   -0.451474   -0.104128
C       0.755694   -0.752999    1.126252
C       1.121410   -0.163752    2.470298
O       0.186035   -2.042887    1.183637
C       1.068373   -3.062622    1.553216
C       1.097715   -3.547795    2.981325
C       0.440835   -4.374670    1.892828
H       0.651196    2.086693    0.688441
H      -0.196744    2.011486   -0.854162
H      -1.080961    1.732682    0.652098
H      -0.562688   -0.481584   -0.563973
H       1.767906   -1.259683   -0.803456
H       2.401540    0.257902   -0.006717
H       1.508087    0.852653    2.366500
H       0.245047   -0.131833    3.126617
H       1.892240   -0.763538    2.963069
H       2.003353   -3.064921    0.994331
H       2.039858   -3.884673    3.400811
H       0.438129   -3.047676    3.680980
H      -0.642868   -4.404279    1.883215
H       0.924367   -5.285081    1.557207
