22

C       0.260026    1.668359   -0.093708
C       0.099423    0.143597   -0.019117
C       0.680000   -0.566688   -1.256377
C       2.209242   -0.669295   -0.966432
C       2.337003   -0.630808    0.594624
C       0.890189   -0.528835    1.132011
C       0.785026    0.128366    2.507337
C       2.817451   -1.850532   -1.570095
N       3.292005   -2.793005   -2.043293
H       1.310459    1.972752   -0.163786
H      -0.255150    2.064202   -0.974842
H      -0.165260    2.160212    0.785699
H      -0.968619   -0.082597    0.076523
H       0.259155   -1.573051   -1.340617
H       0.478268   -0.046484   -2.196263
H       2.717952    0.200981   -1.392464
H       2.857637   -1.508737    0.982371
H       2.923906    0.243799    0.891363
H       0.498148   -1.551249    1.216561
H       1.201683    1.140884    2.504080
H      -0.257280    0.194693    2.837119
H       1.332626   -0.450000    3.258719
