21

C       0.003880    1.658996    0.237022
C       0.130844    0.146667    0.022585
C      -1.221308   -0.559545    0.017628
C      -1.317521   -2.103466   -0.119326
C      -2.394184   -2.152708    1.016792
C      -2.001615   -0.702254    1.334020
O      -2.134774    0.000243    2.296232
O      -1.699530   -2.511427   -1.402671
C      -1.798537   -3.912478   -1.540523
H       0.988228    2.136192    0.259623
H      -0.574260    2.123175   -0.569729
H      -0.504898    1.872538    1.180734
H       0.639522   -0.061712   -0.926857
H       0.757903   -0.285483    0.812751
H      -1.887089   -0.121875   -0.739608
H      -0.386647   -2.603281    0.190367
H      -3.404833   -2.207986    0.597295
H      -2.293687   -2.880154    1.824996
H      -2.078806   -4.117330   -2.576245
H      -0.839915   -4.409464   -1.325178
H      -2.564518   -4.337454   -0.874736
