17

C      -0.627267   -1.205247    0.200587
C      -0.363348   -0.031658    0.209360
C      -0.072311    1.383761    0.184618
C      -0.039088    2.218054    1.509729
C       1.272546    1.480649    1.900576
C       1.387214    1.905551    0.409539
N       0.734920    3.246300    0.702064
C       1.506045    4.259037    1.413978
H      -0.858179   -2.241626    0.195654
H      -0.583139    1.906862   -0.626210
H      -0.891168    2.493614    2.133436
H       1.930763    1.974926    2.613483
H       1.199987    0.412203    2.110013
H       2.231496    1.809457   -0.275254
H       2.193147    4.729641    0.702941
H       0.814923    5.032641    1.764743
H       2.096635    3.918480    2.277764
