21

C      -0.108112    1.531028    0.053742
C       0.000088    0.022737    0.060855
O      -1.184859   -0.626113   -0.333122
C       1.305977   -0.652973   -0.285269
C       0.763694   -0.710661    1.132621
C       1.478291    0.027947    2.279652
C       1.446009   -0.972063    3.408864
C       0.772476   -2.075650    3.092761
C       0.221427   -2.040054    1.690642
H       0.823819    2.006479    0.370311
H      -0.335678    1.893044   -0.956718
H      -0.912245    1.865606    0.717682
H      -1.311363   -0.463828   -1.274409
H       1.252427   -1.563361   -0.874699
H       2.176622   -0.032108   -0.478910
H       2.503718    0.316329    2.011517
H       0.965930    0.958061    2.563332
H       1.914513   -0.774963    4.366991
H       0.608918   -2.918474    3.755769
H      -0.874936   -2.066278    1.679638
H       0.548915   -2.902576    1.096162
