16

N       0.235881    1.408986    0.053738
C       0.031988    0.006943   -0.014916
C      -1.106049   -0.738746   -0.022068
O      -0.805589   -2.062605   -0.031330
C       0.556219   -2.180061   -0.040861
C       1.118362   -0.938602   -0.018344
N       2.446831   -0.529031    0.020173
C       3.541280   -1.347879    0.035041
N       3.455517   -2.617955   -0.070528
H       0.451762    1.800924   -0.858868
H      -0.585942    1.888861    0.401912
H      -2.153213   -0.484785   -0.008682
H       0.970133   -3.169322   -0.057802
H       2.576958    0.450969    0.218952
H       4.472179   -0.777520    0.135908
H       4.383564   -3.033453   -0.055792
