16

C       0.136702    1.298774   -0.579892
C       0.011750    0.020698    0.218214
O       0.880097   -0.387780    0.959753
C      -1.256537   -0.737769    0.035664
C      -1.723994   -1.768266    1.085646
C      -1.422880   -2.234824   -0.285310
N      -2.480442   -1.893737   -1.239076
C      -2.414629   -0.521501   -0.931640
O      -3.049365    0.418205   -1.318784
H       1.029842    1.842846   -0.271802
H       0.205246    1.057108   -1.647720
H      -0.759941    1.915172   -0.462396
H      -0.965628   -1.951169    1.840918
H      -2.750926   -1.726914    1.435101
H      -0.626033   -2.914187   -0.556468
H      -3.350147   -2.406931   -1.328667
