19

O       0.561901    0.700253   -0.758327
C      -0.033177   -0.264626    0.089092
C       0.511138   -0.247011    1.546305
C      -0.667795   -0.538120    2.461532
C      -1.932166   -0.464492    1.657475
C      -1.577190   -0.125408    0.218290
C      -1.511771   -1.801754    2.273488
C      -1.093835   -2.996725    1.506794
O      -1.371578   -4.125135    1.839798
H       0.379230    1.572330   -0.391179
H       0.217016   -1.213999   -0.391278
H       1.358328   -0.926829    1.676585
H       0.883218    0.761515    1.767472
H      -0.622184   -0.166386    3.479091
H      -2.839906   -0.037270    2.068792
H      -1.850085    0.920678    0.029313
H      -2.107520   -0.725007   -0.527424
H      -2.086086   -2.083710    3.150668
H      -0.498331   -2.818169    0.587130
