19

C      -0.480060    0.829603   -0.137664
O       0.742576    0.345006   -0.681919
C       0.694740   -0.907867   -1.177423
N       1.740476   -1.413407   -1.670999
C       1.725606   -2.786804   -2.177637
C       2.061532   -3.773865   -1.052046
C       0.397300   -3.184713   -2.842594
N       0.442680   -3.301635   -4.198489
O      -0.627506   -3.372479   -2.206643
H      -1.278776    0.839944   -0.888960
H      -0.802663    0.230161    0.721990
H      -0.285643    1.851038    0.191697
H      -0.284511   -1.395444   -1.116795
H       2.523416   -2.837399   -2.929066
H       1.223207   -3.830071   -0.353157
H       2.247783   -4.776159   -1.450862
H       2.952314   -3.432876   -0.518958
H       1.262092   -3.062309   -4.727978
H      -0.414130   -3.496866   -4.691249
