21

C      -0.073552    1.513704   -0.041891
C       0.044583    0.007446    0.016706
C       1.383261   -0.668264   -0.192594
C       0.735738   -0.681250    1.159680
C       1.187543   -0.041797    2.478895
C       0.279726   -1.053465    3.232690
C       0.177962   -1.909751    1.924630
C      -1.107493   -2.455969    1.542997
C      -2.180625   -2.889805    1.213424
H       0.819344    2.000402    0.363888
H      -0.193448    1.856662   -1.075385
H      -0.937480    1.872086    0.529498
H      -0.814334   -0.530273   -0.378394
H       1.414773   -1.596542   -0.755231
H       2.255200   -0.033863   -0.328592
H       2.251728   -0.198983    2.682589
H       0.961301    1.017626    2.622085
H       0.698088   -1.556384    4.106423
H      -0.688301   -0.623657    3.496722
H       0.927621   -2.710295    1.942091
H      -3.126425   -3.281832    0.932384
