23

C      -1.714470    1.599921    0.542662
C      -0.973829    0.281778    0.273572
C      -0.156370   -0.219950    1.456054
C       0.809612    0.788612    2.064385
C      -0.744394   -1.160687    2.464971
O      -1.672722   -2.078347    1.875338
C      -0.581819   -2.738257    1.159799
C      -0.869901   -3.093747   -0.286043
C       0.395725   -1.643801    1.586937
H      -1.029387    2.440443    0.687895
H      -2.364991    1.850351   -0.300984
H      -2.344360    1.521146    1.435376
H      -1.714944   -0.477221    0.018527
H      -0.319076    0.401756   -0.599911
H       0.287307    1.677926    2.428851
H       1.354516    0.357115    2.910327
H       1.550883    1.113282    1.324930
H      -0.822514   -0.984639    3.533156
H      -0.337613   -3.659731    1.708394
H      -1.030787   -2.218578   -0.916222
H      -0.024694   -3.659219   -0.693770
H      -1.757519   -3.732704   -0.342693
H       1.434699   -1.819048    1.836582
