16

C       0.164333    1.386870   -0.324057
N       0.073153   -0.013956    0.029144
C       0.755561   -0.565889    1.051748
O       1.520915    0.009045    1.809818
C       0.464277   -2.073667    1.197999
O      -0.316073   -2.636796    0.464134
C       1.189496   -2.757152    2.315472
C       0.437446   -3.725650    3.147055
O       1.352502   -4.167793    2.166033
H       0.863513    1.858072    0.368245
H       0.532998    1.512339   -1.347668
H      -0.810129    1.879995   -0.240373
H      -0.520936   -0.645054   -0.489943
H       2.024403   -2.215938    2.747033
H       0.739479   -3.862622    4.184114
H      -0.612026   -3.900846    2.917480
