20

N      -0.019270   -1.176779   -0.070383
C      -0.027322   -0.022849   -0.004141
C      -0.009593    1.436682    0.079715
C       1.415242    2.025001    0.009030
C       2.166317    1.702797   -1.306218
C       3.189540    2.847908   -1.477388
C       2.543509    4.052063   -0.803529
C       1.099605    4.342298   -1.129845
C       1.447887    3.545289    0.107444
H      -0.620639    1.841899   -0.735249
H      -0.496389    1.733677    1.015743
H       1.985945    1.619571    0.853977
H       2.632791    0.715683   -1.283725
H       1.460463    1.692660   -2.144134
H       4.123663    2.604796   -0.957402
H       3.442902    3.022084   -2.528479
H       3.176160    4.879849   -0.503166
H       0.750880    5.357124   -0.973902
H       0.635827    3.848638   -1.978379
H       1.266098    3.998471    1.076346
