18

C      -0.088662    1.551926    0.028236
C       0.039729    0.033714    0.012566
C       1.052090   -0.592177   -0.990217
C       2.380100   -0.057075   -0.420369
O       2.157767   -0.101774    0.999394
C       0.804710   -0.591260    1.189268
C       0.865048   -2.078607    0.781443
O       0.909933   -3.071670    1.464942
N       0.937527   -2.002463   -0.602668
H       0.844341    2.035562    0.326421
H      -0.377579    1.933014   -0.957157
H      -0.861894    1.857878    0.739567
H      -0.936580   -0.438877   -0.123879
H       0.876826   -0.424506   -2.052400
H       3.229551   -0.695813   -0.686457
H       2.595540    0.971367   -0.734842
H       0.497480   -0.393764    2.213138
H       1.368333   -2.750014   -1.127088
