12

O      -0.050996   -0.045872   -0.000359
C      -0.005533    1.145013    0.008997
N       1.189900    1.900542    0.001976
C       1.262624    3.263976    0.012434
C       2.599966    3.583126    0.000182
C       3.267552    2.315473   -0.017607
N       2.419337    1.312817   -0.016513
C       3.182059    4.873315    0.004328
N       3.671836    5.922227    0.007522
H      -0.882331    1.816687    0.024239
H       0.382941    3.887074    0.027335
H       4.332251    2.134853   -0.030895
