19

O       0.000170    1.660568    0.213446
C       0.144537    0.270071    0.408210
C      -1.123052   -0.506954    0.052690
C      -1.572756   -0.478018   -1.454769
C      -1.817164   -2.006727   -1.386897
O      -1.458073   -2.820488   -2.469910
C      -0.994567   -2.063118   -0.072391
C      -2.273876   -0.113794    0.941631
O      -2.257813    0.809842    1.722811
H      -0.660621    1.944194    0.858143
H       0.961299   -0.056143   -0.245770
H       0.437282    0.030223    1.443023
H      -2.410487    0.163871   -1.735996
H      -0.716092   -0.223966   -2.087055
H      -2.871705   -2.229176   -1.198087
H      -0.537433   -2.641481   -2.689998
H       0.048167   -2.340720   -0.261520
H      -1.374793   -2.681587    0.744729
H      -3.191773   -0.735837    0.834711
