21

O       0.363497    0.886573   -0.934567
C       0.089115   -0.213641   -0.097985
C       0.170339    0.015173    1.433822
C      -1.294231   -0.488959    1.602173
C      -2.266050    0.518602    2.234510
C      -2.536247    1.697927    1.333522
C      -2.611996    1.563090    0.007515
C      -2.430351    0.226645   -0.667697
C      -1.407650   -0.667196    0.048726
H      -0.136445    1.639398   -0.596424
H       0.738944   -1.015810   -0.457498
H       0.936560   -0.558978    1.961168
H       0.301121    1.072265    1.688817
H      -1.351646   -1.438125    2.140837
H      -3.218491    0.016030    2.460524
H      -1.869903    0.853693    3.200703
H      -2.704197    2.667193    1.795699
H      -2.848262    2.420907   -0.617680
H      -3.399484   -0.291491   -0.703416
H      -2.118256    0.363309   -1.708338
H      -1.557384   -1.705878   -0.258789
