21

C      -0.245655    1.722329    0.139941
C      -0.250131    0.201125    0.096135
C       0.674436   -0.496339   -0.913272
N       2.055594   -0.076369   -0.593454
C       1.433155   -1.197918    0.161504
C       0.498692   -0.600634    1.237846
N       0.941327    0.126548    2.408614
C       1.946116   -0.508219    3.256486
C       2.283264    0.702573    2.458570
H       0.775649    2.107654    0.108611
H      -0.795215    2.135875   -0.713062
H      -0.720909    2.080835    1.057591
H      -1.274686   -0.172254    0.006885
H       0.423713   -0.845866   -1.907454
H       2.668203   -0.497723   -1.290911
H       1.885608   -2.182845    0.147467
H      -0.162079   -1.397059    1.596511
H       1.773193   -0.440386    4.327374
H       2.373425   -1.453609    2.925159
H       2.925661    0.579323    1.594406
H       2.344847    1.671568    2.947185
