23

C      -0.164130    1.572986   -0.071088
C       0.015944    0.052076   -0.021625
C       0.770345   -0.470921    1.207495
O       0.044418   -0.045674    2.364146
C       0.853054   -2.013987    1.182644
C       1.668206   -2.542089    2.372537
C       3.005821   -1.807554    2.469797
O       2.824421   -0.394740    2.495834
C       2.202268    0.080225    1.307987
H       0.785002    2.097297   -0.222904
H      -0.824753    1.854190   -0.896676
H      -0.605213    1.932763    0.861384
H      -0.970694   -0.427261   -0.020926
H       0.529838   -0.300271   -0.924610
H       0.679580   -0.028618    3.090792
H      -0.161239   -2.425663    1.196778
H       1.321529   -2.331681    0.241459
H       1.104464   -2.386478    3.299572
H       1.842260   -3.619931    2.280411
H       3.540188   -2.061934    3.389560
H       3.650736   -2.077026    1.616007
H       2.792380   -0.206034    0.422173
H       2.194522    1.169636    1.388179
