15

N      -0.146486    1.350144    0.013011
C       0.036496    0.086004    0.002032
C      -1.156338   -0.748483    0.007421
N      -2.089882   -1.429291    0.011212
N       1.209664   -0.645231   -0.014495
C       1.314354   -2.119293   -0.025663
C       2.858501   -2.314745   -0.040821
N       3.460555   -0.970218   -0.036113
C       2.507488   -0.131352   -0.021835
H       0.726067    1.876734    0.008537
H       0.838013   -2.544571    0.861210
H       0.822179   -2.532273   -0.909691
H       3.211680   -2.871659    0.832200
H       3.196031   -2.858425   -0.928262
H       2.656058    0.941936   -0.015320
