23

C      -1.237669    0.974166    0.321799
C      -0.334168   -0.232551    0.111120
C       0.677794   -0.169670   -1.053800
O       1.239628    1.147525   -1.263439
C       2.445506    0.793508   -0.544982
C       1.850929   -0.550879   -0.109753
C       0.860624   -0.537077    1.109808
C       1.128934    0.498744    2.200073
C       0.736423   -1.929171    1.734297
H      -0.667936    1.905643    0.291885
H      -1.995189    1.028047   -0.467937
H      -1.763631    0.916098    1.280492
H      -0.948973   -1.134963    0.010286
H       0.430132   -0.661780   -1.999244
H       3.297654    0.695187   -1.231169
H       2.701283    1.523021    0.231300
H       2.472017   -1.440100   -0.218946
H       1.166290    1.520230    1.814070
H       0.342514    0.467197    2.962450
H       2.081398    0.294903    2.703476
H       1.636834   -2.189237    2.303529
H      -0.118347   -1.975152    2.419192
H       0.591566   -2.700410    0.969756
