19

C       0.073017    1.493549   -0.185001
C       0.060003   -0.009946   -0.126525
C       0.580200   -0.995642   -1.198386
C       0.055556   -1.907301   -0.077859
C       0.556738   -0.941852    1.045756
C      -0.825905   -0.963217    1.753436
C      -1.238641    0.141635    2.597184
C      -1.593100    1.034031    3.322966
C      -1.148083   -0.958682    0.233848
H       1.098270    1.866908   -0.288600
H      -0.498171    1.851132   -1.049380
H      -0.361099    1.931910    0.716882
H       0.036600   -1.018141   -2.149270
H       1.661296   -1.002107   -1.375523
H       0.037291   -2.996176   -0.016934
H       1.546478   -0.934830    1.505497
H      -1.051065   -1.917077    2.245990
H      -1.903210    1.826696    3.957676
H      -2.128761   -0.971117   -0.244808
