17

C      -0.116937    1.506567   -0.044875
C       0.106176    0.034175    0.016583
C       0.398126   -1.003438   -1.003362
C       1.240157   -1.884951   -0.062219
C       0.286592   -3.005331    0.421499
C      -0.567214   -1.827932    0.918228
C       0.698553   -0.932855    1.082668
N      -0.939061   -0.991398   -0.299974
H       0.833379    2.051935   -0.060572
H      -0.675582    1.763610   -0.950372
H      -0.694225    1.856703    0.818464
H       0.392108   -0.955479   -2.085679
H       2.295133   -2.040600   -0.279037
H      -0.143423   -3.690384   -0.314670
H       0.713800   -3.565596    1.259318
H      -1.383536   -1.927880    1.632038
H       1.231166   -0.711751    2.004357
