16

C       0.417886    1.452275   -0.103406
C       0.044377    0.014961    0.186583
O       0.639604   -0.913747   -0.771809
C       1.357067   -1.624283    0.243120
C       2.814711   -1.537109    0.077053
N       3.963120   -1.468325   -0.033758
C       0.735896   -0.738691    1.359477
C       1.636209    0.008026    2.319600
O       1.353888    1.079949    2.788445
H       1.502418    1.584715   -0.137308
H       0.004401    1.741608   -1.074134
H       0.013912    2.113205    0.667451
H      -1.044392   -0.105915    0.188342
H       1.076747   -2.683424    0.280084
H       0.029099   -1.309348    1.970547
H       2.575344   -0.518116    2.595820
