20

C      -0.179410    1.440986    0.069057
C      -0.118861   -0.070795    0.034443
O      -0.066904   -0.742634    1.040778
C      -0.089219   -0.735583   -1.338916
C       1.384729   -0.803834   -1.823043
O       1.487690   -1.539215   -3.024473
C       1.026238   -2.874472   -2.861941
C      -0.442631   -2.879704   -2.437015
N      -0.700796   -2.055855   -1.257678
H       0.527772    1.884545   -0.639878
H      -1.180582    1.766051   -0.239083
H       0.020994    1.802603    1.078270
H      -0.646656   -0.124703   -2.062130
H       1.788314    0.191572   -2.034451
H       1.994898   -1.272073   -1.031562
H       1.168700   -3.369566   -3.827544
H       1.642549   -3.394739   -2.108317
H      -1.047183   -2.492446   -3.268273
H      -0.780931   -3.901381   -2.234731
H      -0.379950   -2.501240   -0.402817
