17

O       0.283480    0.021659    0.387914
C       0.398253    1.201281    0.523085
O       0.805497    2.008946   -0.483076
C       0.860246    3.394054   -0.198603
C       2.006494    3.933009    0.618206
C       1.949375    4.170778   -0.873971
C       2.933857    3.469556   -1.800712
C       4.211493    4.169888   -1.884698
C       5.255061    4.762505   -1.945893
H       0.192162    1.755079    1.457816
H      -0.122319    3.848011   -0.106753
H       1.817226    4.756085    1.297723
H       2.737944    3.212839    0.970055
H       1.677824    5.172221   -1.192685
H       3.091522    2.441259   -1.458756
H       2.493490    3.386872   -2.802566
H       6.182984    5.275030   -2.005324
