13

O      -0.006541    0.025877    0.003249
C      -0.014162    1.211037    0.009854
O      -1.150514    2.004749    0.030114
C      -0.694996    3.301011    0.030783
C       0.634349    3.311523    0.012210
O       1.108593    2.021204   -0.001479
C       1.148641    4.670278    0.012557
C       0.066123    5.480863    0.032203
C      -1.240852    4.683788    0.046159
H       2.187361    4.965611   -0.000387
H       0.079007    6.561268    0.037944
H      -1.863028    4.921810   -0.825485
H      -1.838206    4.911968    0.937577
