16

C       0.103102    1.569546   -0.084215
C      -0.057657    0.063898    0.104952
O       0.501773   -0.640485   -1.032398
C       1.483388   -1.641789   -0.673753
C       1.584592   -1.489432    0.807009
C       0.723535   -0.547406    1.214686
O       0.808686   -0.419811    2.562898
C       1.768101   -1.343190    2.891102
N       2.265634   -2.009156    1.895067
H       1.161311    1.837107   -0.145883
H      -0.392680    1.881819   -1.007044
H      -0.350613    2.108940    0.753673
H      -1.129300   -0.180971    0.170087
H       1.126411   -2.631990   -0.988608
H       2.418074   -1.433258   -1.209821
H       2.012130   -1.421322    3.938706
