16

C      -0.007204    1.608246   -0.189030
C       0.024525    0.123186   -0.048577
C       0.077482   -1.040035   -0.978838
O       1.190115   -1.680676   -0.353401
C       0.883523   -0.889847    0.813879
C      -0.447339   -1.541362    1.334434
C      -0.947612   -0.921058    2.550329
N      -1.328531   -0.422274    3.521711
C      -1.060770   -0.950783    0.058670
H       0.969426    2.000828   -0.491516
H      -0.737942    1.903676   -0.949081
H      -0.293299    2.089289    0.752079
H      -0.067608   -1.146561   -2.045685
H       1.728677   -0.700346    1.470989
H      -0.416138   -2.630095    1.441923
H      -2.108222   -0.884248   -0.204446
