19

N       0.015855    1.437763    0.150745
C      -0.001743    0.029787    0.027859
C      -1.107153   -0.793802   -0.021701
C      -2.603768   -0.767284    0.026341
C      -2.964622   -2.223373   -0.390338
C      -1.731331   -3.075573   -0.002787
N      -0.660000   -2.099635   -0.066678
C       0.700530   -2.134294   -0.035162
C       1.142734   -0.824308    0.015575
H       0.820514    1.842173   -0.312920
H      -0.816873    1.863069   -0.238757
H      -2.981712   -0.543525    1.034040
H      -3.058119   -0.033567   -0.648747
H      -3.880307   -2.587818    0.080488
H      -3.106106   -2.267418   -1.474180
H      -1.826564   -3.487207    1.011447
H      -1.558884   -3.909563   -0.689922
H       1.248366   -3.062330   -0.068374
H       2.174937   -0.505319    0.027906
