20

C      -0.065784    1.661742   -0.169403
C      -0.007329    0.133080   -0.149794
C      -1.390591   -0.509409    0.082922
C      -1.362899   -2.002656    0.120669
C      -1.321647   -2.920502    1.152531
C      -1.309683   -2.699605    2.630208
N      -1.284596   -4.176455    0.613969
N      -1.297895   -4.096437   -0.684667
N      -1.341226   -2.786524   -0.989449
H       0.925573    2.093453   -0.335437
H      -0.725210    2.024637   -0.965757
H      -0.446421    2.055755    0.779374
H       0.407399   -0.236862   -1.095715
H       0.678084   -0.207652    0.634823
H      -1.800413   -0.145900    1.032035
H      -2.083659   -0.167535   -0.697392
H      -1.886920   -1.813000    2.910461
H      -1.741685   -3.566346    3.135922
H      -0.292400   -2.565927    3.016462
H      -1.376452   -2.508407   -1.957460
