13

N      -0.023858    1.270957   -0.086688
C       0.000142    0.020703   -0.020471
O       1.118816   -0.774441    0.015309
C       0.761953   -2.126171    0.013244
O       1.561944   -3.006340    0.092290
N      -0.598131   -2.189065   -0.122111
C      -1.236122   -0.887735    0.019172
C      -2.016734   -0.745422    1.245781
C      -2.671248   -0.662917    2.248651
H       0.918366    1.662964   -0.105436
H      -1.070258   -3.048483    0.107144
H      -1.867463   -0.656210   -0.846565
H      -3.244318   -0.574338    3.139120
