17

C      -0.195534    1.440613    0.069458
C       0.105932   -0.022384   -0.083193
N       1.273981   -0.448375   -0.328458
O      -1.040284   -0.748701    0.082640
C      -0.958435   -2.162783   -0.031960
C      -2.363776   -2.719867    0.185320
C      -2.361258   -4.228721    0.309293
O      -3.037822   -4.971824   -0.351093
H       0.719420    2.016584   -0.059561
H      -0.937729    1.752770   -0.671751
H      -0.621880    1.638135    1.057849
H       1.324187   -1.462825   -0.406476
H      -0.579338   -2.441337   -1.024270
H      -0.262245   -2.562075    0.719942
H      -2.747345   -2.308128    1.129084
H      -3.038380   -2.424009   -0.620947
H      -1.671012   -4.624860    1.091178
