16

C      -0.045777   -1.173758    0.073218
C      -0.016438    0.026258    0.043810
C       0.011937    1.463612    0.016032
O      -0.850826    2.050166    0.969355
C      -0.661562    3.464365    0.764013
C       0.357287    3.456645   -0.360098
C       1.349529    2.278256   -0.088019
N       1.428717    1.911030   -1.545996
C      -0.013584    2.281290   -1.323511
H      -0.067492   -2.235360    0.094545
H      -1.615473    3.930235    0.489643
H      -0.293907    3.927294    1.687478
H       0.731238    4.394783   -0.770373
H       2.208858    2.241853    0.582189
H       1.889694    2.671557   -2.052723
H      -0.764854    2.248471   -2.113111
