23

C      -0.876906    1.131033   -0.010008
C       0.116736   -0.029024   -0.041904
C       1.276188    0.141352   -1.056734
C       2.387446   -0.686551   -0.448162
C       3.606523   -1.045623   -1.232167
O       4.516791   -1.761772   -0.416875
C       2.127938   -0.986034    0.824893
C       0.824066   -0.387302    1.306203
C       1.073390    0.798320    2.256648
H      -0.392513    2.074847    0.261139
H      -1.341131    1.270402   -0.992472
H      -1.681768    0.950000    0.710830
H      -0.428725   -0.931988   -0.343475
H       0.993045   -0.186084   -2.065279
H       1.582471    1.194469   -1.153984
H       3.306935   -1.638687   -2.115454
H       4.064581   -0.121481   -1.630306
H       5.275196   -2.001588   -0.956332
H       2.799461   -1.537714    1.471739
H       0.223733   -1.125855    1.854170
H       1.648354    1.590194    1.764927
H       0.135082    1.231346    2.618308
H       1.647566    0.471628    3.129951
