20

C      -0.321766    1.538669    0.086261
C      -0.000070    0.046307    0.045800
C       0.774348   -0.412820    1.278885
O       1.188641    0.348062    2.137566
N       0.970308   -1.756056    1.369988
C       0.816864   -2.875637    0.437616
C       1.588026   -3.763112    1.447374
O       2.720508   -4.347371    0.856818
C       1.814637   -2.482968    2.315229
H       0.592852    2.127191    0.186454
H      -0.840981    1.846747   -0.825795
H      -0.955190    1.777954    0.944242
H      -0.915403   -0.552463   -0.043763
H       0.597642   -0.196248   -0.843688
H      -0.218422   -3.163328    0.226493
H       1.363699   -2.759684   -0.505633
H       0.954797   -4.510383    1.940374
H       3.190641   -4.850901    1.529192
H       2.856382   -2.142783    2.322550
H       1.430362   -2.503504    3.339826
