14

O      -0.057422    1.323749   -0.262715
C       0.015984   -0.016478   -0.096671
C      -0.207003   -0.958338   -1.238195
C      -1.061029   -1.187038   -0.028700
O      -0.270773   -1.827491    1.005172
C       0.590973   -0.735510    1.082649
N       1.451366   -0.418771    1.933457
C      -2.513937   -1.101911    0.098811
O      -3.234880   -0.658560   -0.765914
H      -0.089177    1.743026    0.606914
H      -0.741714   -0.493955   -2.061846
H       0.531742   -1.708058   -1.506397
H       1.544648   -1.123530    2.666165
H      -2.898533   -1.453806    1.079167
