21

C       1.132074    0.739179   -1.594634
N       0.791442   -0.258002   -0.586467
C       1.579277   -0.378318    0.638267
C       2.780330    0.491223    0.939777
O       3.894285    0.172042    0.114128
C       0.165441    0.126911    0.676344
C      -0.193431    1.535518    1.038304
C      -1.628789    1.915422    1.103891
N      -0.838135    1.793201    2.339993
H       1.452069    1.717493   -1.212692
H       1.944952    0.342878   -2.208549
H       0.258323    0.897228   -2.234369
H       1.738807   -1.419054    0.933245
H       2.581346    1.549217    0.760025
H       3.030813    0.390012    2.007678
H       4.087300   -0.764469    0.228852
H      -0.602688   -0.579396    1.002903
H       0.515827    2.309050    0.763293
H      -1.937938    2.926647    0.855574
H      -2.363127    1.146864    0.874931
H      -1.050064    0.907810    2.796269
