19

C       0.004888    1.468906    0.082714
C       0.005216   -0.027660   -0.063932
C       0.995576   -0.847908   -0.826458
C       0.261559   -2.005619   -1.474015
N      -1.066158   -2.084249   -0.834731
C      -1.011653   -2.107118    0.636218
C       0.365680   -1.997777    1.263784
N       1.027004   -0.833953    0.648361
C      -1.284643   -0.829338   -0.083126
H       1.029016    1.848104    0.116873
H      -0.513118    1.946215   -0.756309
H      -0.497543    1.775549    1.006947
H       1.871204   -0.421744   -1.311688
H       0.125650   -1.825646   -2.546363
H       0.783424   -2.963779   -1.365576
H      -1.784849   -2.700177    1.119010
H       0.285168   -1.829010    2.343556
H       0.976793   -2.896509    1.117806
H      -2.252303   -0.345607   -0.155096
