19

O       0.040966    1.428746    0.062552
C       0.051045    0.013333    0.035669
C       0.754256   -0.581423    1.266808
C       0.597882   -2.075554    1.329270
C      -0.359411   -2.738515    0.680369
C      -1.406777   -2.076369   -0.171956
O      -2.722860   -2.538770    0.174721
C      -1.370492   -0.533591   -0.089819
O      -2.073762   -0.072464    1.058945
H      -0.653524    1.675666    0.686144
H       0.610128   -0.270828   -0.863932
H       1.812688   -0.300647    1.252992
H       0.326605   -0.127645    2.170564
H       1.312917   -2.627613    1.934880
H      -0.427528   -3.822247    0.746772
H      -1.272712   -2.371709   -1.220897
H      -2.709087   -2.719405    1.121202
H      -1.831388   -0.115527   -0.996791
H      -2.956815   -0.455158    0.996105
