18

C       0.748591    1.208274    0.199169
C      -0.253508    0.099864   -0.048201
O      -1.152729   -0.160469    0.726221
C      -0.121625   -0.695326   -1.296524
C       1.164301   -1.056123   -1.954639
N       0.306046   -0.109608   -2.657527
C      -0.774553   -0.952729   -3.294358
C      -1.273925   -1.476360   -1.930191
O      -1.277671   -2.878635   -1.817124
H       1.699794    0.780514    0.537451
H       0.946205    1.764314   -0.721822
H       0.369973    1.870886    0.978298
H       2.071329   -0.608941   -1.561325
H       1.271926   -2.070581   -2.332414
H      -1.486707   -0.319558   -3.824457
H      -0.383234   -1.720427   -3.967622
H      -2.237588   -1.044779   -1.639988
H      -1.589152   -3.101768   -0.932999
