13

N       0.019623    1.412554    0.152044
C      -0.012946    0.041181    0.052822
C      -1.131736   -0.726314    0.022791
F      -2.331286   -0.141792    0.026629
N      -1.144870   -2.085897   -0.008254
C      -0.008670   -2.665588   -0.018218
O       1.191768   -2.040717   -0.011440
C       1.265486   -0.653868    0.008166
N       2.373329   -0.035078   -0.019067
H       0.905679    1.813451   -0.122545
H      -0.800835    1.900767   -0.170907
H       0.100947   -3.742753   -0.035096
H       3.165259   -0.673853   -0.058688
