19

C       0.494737    0.760480   -0.308091
C      -0.105574   -0.627209   -0.091302
C      -1.613777   -0.627691   -0.007931
O      -2.275031    0.388846   -0.080969
C      -2.364790   -1.955721    0.199076
O      -3.700442   -1.682244    0.516395
C      -2.334010   -2.855265   -1.075446
C      -1.075935   -3.538960   -1.335736
C      -0.039760   -4.116255   -1.534318
H       1.585886    0.702574   -0.342554
H       0.143041    1.197258   -1.246300
H       0.208637    1.442940    0.496065
H       0.193991   -1.329399   -0.879084
H       0.268310   -1.084244    0.835711
H      -1.887977   -2.511234    1.019242
H      -3.803084   -0.727025    0.364889
H      -3.128927   -3.593614   -0.924676
H      -2.634259   -2.252698   -1.941599
H       0.870140   -4.632272   -1.717828
