19

C      -0.282210    1.318453    0.299672
C       1.077000    0.837253   -0.103445
O       1.812137    0.366921    1.029980
C       0.832568   -0.684429    1.235941
C      -0.040642   -0.164526    0.093209
C      -0.783203   -0.999109   -0.897964
C      -2.297047   -1.265248   -0.686981
C      -2.456303   -0.622328   -2.076543
O      -1.053350   -0.275548   -2.124709
H      -0.430429    1.731764    1.293855
H      -0.854088    1.777214   -0.500348
H       1.630046    1.156289   -0.978779
H       1.275124   -1.666630    1.028556
H       0.413124   -0.673860    2.249082
H      -0.212806   -1.916532   -1.108823
H      -2.596214   -2.309966   -0.594165
H      -2.731059   -0.685466    0.129357
H      -2.727410   -1.317532   -2.881095
H      -3.097633    0.263527   -2.141562
