18

C       0.070771    1.534698   -0.169014
C       0.013002    0.006910   -0.135721
C      -1.413398   -0.521321    0.117901
O      -2.344124   -0.060588   -0.858486
C      -1.424613   -1.983297    0.229624
C      -1.414300   -3.188056    0.288476
C      -1.351203   -4.637899    0.415215
N      -2.377998   -5.289993   -0.207804
O      -0.454932   -5.207803    1.006071
H       1.082622    1.880753   -0.397987
H      -0.610810    1.932199   -0.925126
H      -0.218137    1.961303    0.797887
H       0.371722   -0.413331   -1.084333
H       0.670549   -0.391284    0.644987
H      -1.778101   -0.099549    1.063594
H      -2.113404   -0.477413   -1.696666
H      -3.173545   -4.786626   -0.560735
H      -2.446770   -6.286534   -0.077563
