18

C       0.089046    1.405179   -0.099432
N       0.164526   -0.041317   -0.068172
C       0.560600   -0.638353    0.994295
N       0.942553    0.033035    2.179040
C       1.325537   -0.650301    3.193076
N       1.400836   -2.012156    3.235160
C       1.042171   -2.741087    2.109684
C       0.626638   -2.112368    0.994943
C       0.228850   -2.851869   -0.244422
H       0.717511    1.779590   -0.918071
H      -0.938993    1.705679   -0.340624
H       0.391724    1.895866    0.831778
H       1.622277   -0.144552    4.111610
H       1.712102   -2.477334    4.070807
H       1.120538   -3.817827    2.196857
H       0.321948   -3.934341   -0.115934
H      -0.802401   -2.607853   -0.518840
H       0.845048   -2.534138   -1.091578
