14

C      -0.184319    1.413663   -0.103997
N      -0.006083   -0.017264    0.044930
N       0.294163   -0.810365   -0.972915
N       0.386997   -2.017485   -0.473316
C       0.140246   -1.904096    0.853473
C       0.141241   -3.096902    1.762086
O       1.106130   -4.049148    1.371659
N      -0.109760   -0.649558    1.210133
H       0.550569    1.942426    0.506370
H      -0.040795    1.650319   -1.157311
H      -1.190266    1.694811    0.213979
H       0.375076   -2.779057    2.781918
H      -0.872139   -3.531877    1.781178
H       1.070261   -4.112130    0.409645
