17

C       0.016311    1.400360   -0.326067
C       0.044581   -0.010362    0.260217
O       0.573352   -0.030019    1.582241
C      -1.330887   -0.650010    0.232359
N      -1.819279   -1.108220   -1.068481
C      -1.537906   -2.112342   -0.009894
C      -0.454237   -3.029025   -0.234061
C       0.439285   -3.816398   -0.397500
H       1.015834    1.842414   -0.298113
H      -0.334352    1.377623   -1.361624
H      -0.660818    2.048549    0.246421
H       0.721390   -0.636337   -0.328899
H       0.092950    0.624737    2.100902
H      -2.050032   -0.184666    0.909577
H      -2.823514   -0.972869   -1.150032
H      -2.398819   -2.553602    0.488508
H       1.234018   -4.504867   -0.545362
