17

C      -0.056218    1.529060    0.083337
C       0.008859   -0.006974   -0.009569
C       0.692648   -0.471425   -1.210352
C       1.263472   -0.829599   -2.213179
C       1.927556   -1.251609   -3.379783
C       2.515875   -0.567759   -4.426838
N       3.043476   -1.433361   -5.346716
C       2.787789   -2.636775   -4.880307
N       2.117940   -2.588752   -3.698734
H       0.948252    1.960121    0.098275
H      -0.590920    1.947635   -0.773335
H      -0.576081    1.831185    0.997033
H       0.516490   -0.405791    0.878719
H      -1.009041   -0.418171    0.014774
H       2.577789    0.502367   -4.549796
H       3.060913   -3.569710   -5.350418
H       1.807304   -3.366369   -3.140474
