15

O       0.090034   -0.018555   -0.042437
C       0.039266    1.167450   -0.009416
O      -1.109938    1.887779    0.093426
C      -0.834474    3.289671    0.098799
C      -1.182152    3.931643    1.444726
C       0.128646    3.783671    2.226326
O       1.149937    3.943148    1.229420
C       0.715894    3.367182    0.045777
O       1.112364    1.996905   -0.073828
H      -1.338094    3.743683   -0.755864
H      -1.417644    4.989253    1.295737
H      -2.037745    3.442308    1.912646
H       0.287595    4.554976    2.981240
H       0.210195    2.799784    2.705914
H       1.162920    3.910415   -0.787195
