18

C      -0.290124    1.582354   -0.021558
C      -0.007305    0.073585   -0.038430
C       0.787761   -0.443928   -1.211046
C       1.846162   -1.168603   -0.844437
C       1.986679   -1.291701    0.652252
C       3.352935   -0.912104    1.240391
C       0.855025   -0.375151    1.158032
O       0.695957   -0.029531    2.300469
H       0.634948    2.155009   -0.140799
H      -0.970137    1.863018   -0.831320
H      -0.745051    1.863845    0.931622
H      -0.970917   -0.454276    0.040044
H       0.501614   -0.237029   -2.236705
H       2.545771   -1.636644   -1.528650
H       1.746853   -2.315161    0.981433
H       3.659298    0.084167    0.906483
H       3.297503   -0.903909    2.332000
H       4.123849   -1.625170    0.933584
