17

N      -0.120237    1.270351    0.243434
C      -0.001555   -0.003595   -0.228962
O       1.029236   -0.425770   -0.716364
C      -1.269715   -0.847779   -0.123309
C      -0.936870   -2.329622   -0.036035
O      -2.182329   -3.040216   -0.121583
C      -2.117490   -4.359469    0.188477
N      -3.363865   -4.917950    0.093333
O      -1.116178   -4.940750    0.531871
H       0.673801    1.884379    0.165319
H      -0.966234    1.618321    0.657825
H      -1.880612   -0.540671    0.732374
H      -1.871538   -0.666058   -1.022694
H      -0.276963   -2.622838   -0.855361
H      -0.434801   -2.582025    0.900915
H      -4.071222   -4.426671   -0.426582
H      -3.392007   -5.923138    0.084875
