14

O      -0.035600    0.009273   -0.140900
C      -0.051649    1.183180   -0.050423
C      -1.083527    2.371184    0.095883
C      -0.019025    2.986338    1.053930
C       1.023519    2.397781    0.045296
C       0.603101    3.073286   -1.252617
C      -0.740742    3.056799   -1.215053
C       2.414003    2.221996    0.362468
N       3.527413    2.061640    0.630302
H      -2.120562    2.217024    0.379240
H      -0.021332    4.075849    1.124348
H       0.021352    2.510812    2.037621
H       1.278036    3.363996   -2.043357
H      -1.444902    3.335438   -1.984917
