18

C       0.020212    1.505164    0.040016
C       0.031263   -0.003458   -0.021604
C       0.608529   -0.657953   -1.291355
O       0.097428   -2.017788   -1.256725
C      -0.723518   -2.137871   -0.085541
C       0.185280   -2.091406    1.147301
N       0.607304   -0.654434    1.179413
C      -1.331689   -0.731088   -0.022547
O      -2.452117   -0.316271   -0.010155
H       1.036505    1.912904    0.012712
H      -0.536473    1.920396   -0.805067
H      -0.456089    1.836394    0.965655
H       0.270806   -0.169014   -2.215026
H       1.706061   -0.679686   -1.285244
H      -1.393060   -2.988264   -0.189863
H      -0.349950   -2.357974    2.067343
H       1.026761   -2.779971    1.020027
H       1.617640   -0.567236    1.183211
