17

C       0.374212    0.914419   -0.441499
O      -0.180947    0.198599    0.658205
C       0.593178   -0.780006    1.157575
N       0.175226   -1.470515    2.129994
C       1.034583   -2.501030    2.645936
C       0.387431   -3.912486    2.828263
N       1.489126   -4.444756    2.019119
C       2.052977   -3.235004    1.711965
O       2.951364   -2.907647    0.977384
H       0.558001    0.253889   -1.296852
H      -0.364324    1.666459   -0.720914
H       1.309411    1.413805   -0.162669
H       1.561437   -0.911306    0.660896
H       1.512718   -2.161043    3.571684
H       0.349480   -4.299694    3.850316
H      -0.595184   -3.989798    2.355375
H       1.665124   -5.367318    1.649639
