20

C       0.009302    1.257914    0.173775
C      -0.049475   -0.208280   -0.261869
C       0.528228   -0.418797   -1.666180
N       0.463459   -1.801535   -2.103730
C       1.564105   -2.556190   -2.349824
O       2.719174   -2.181274   -2.246602
C       1.250755   -3.976851   -2.762982
C       0.547569   -4.886306   -1.843214
O      -0.123436   -4.321833   -2.971078
H       1.041400    1.624257    0.189441
H      -0.559196    1.898965   -0.509180
H      -0.406693    1.389723    1.176740
H       0.506078   -0.836036    0.444607
H      -1.089213   -0.560739   -0.240536
H      -0.002104    0.218163   -2.386618
H       1.584570   -0.138548   -1.692834
H      -0.427816   -2.230402   -2.306163
H       1.958174   -4.393081   -3.476150
H       0.736929   -5.956271   -1.900636
H       0.224231   -4.513521   -0.873220
