16

N      -0.147147    1.319375   -0.082079
C      -0.147335   -0.047629   -0.045421
C      -1.190879   -0.936821    0.014982
C      -2.641683   -0.584393    0.019819
O      -2.954193    0.430068   -0.946672
C      -0.516621   -2.192540    0.088827
N      -1.105958   -3.437948    0.248457
N       0.794841   -2.078624    0.061848
O       1.028207   -0.673709   -0.020884
H       0.693893    1.742066   -0.446606
H      -1.008583    1.700927   -0.450266
H      -3.260681   -1.480661   -0.136562
H      -2.957202   -0.150129    0.975745
H      -2.674785    0.092686   -1.805377
H      -1.959521   -3.562231   -0.277900
H      -0.455452   -4.194328    0.078822
