18

O       0.028728    1.360717   -0.447153
C      -0.127809    0.027129   -0.003751
C      -1.586657   -0.383516    0.079334
O      -2.111411   -0.274053   -1.258393
C      -3.387708   -0.688149   -1.418000
O      -4.080275   -1.129794   -0.535408
N      -3.750583   -0.601463   -2.756196
C      -3.825423    0.656473   -3.481243
C      -5.060108   -0.122475   -3.141203
H      -0.411247    1.417408   -1.302311
H       0.412514   -0.681127   -0.651047
H       0.314757   -0.029871    0.996036
H      -1.701315   -1.410778    0.438228
H      -2.148209    0.283068    0.741121
H      -3.639233    1.571473   -2.925220
H      -3.426865    0.641738   -4.491317
H      -5.563841   -0.703237   -3.907804
H      -5.700454    0.256938   -2.349970
