23

C       0.077565    1.545472    0.149994
C      -0.015729    0.037046   -0.112154
C      -1.429361   -0.506487   -0.045409
C      -2.311017   -0.454979    1.258121
C      -3.133203   -1.532531    0.475324
C      -3.584901   -0.694481   -0.728972
C      -2.479420   -0.027329   -1.068538
C      -1.737221   -2.059990   -0.024181
C      -1.597891   -2.928394   -1.262255
H       1.113192    1.893581    0.087521
H      -0.510221    2.115308   -0.577226
H      -0.300086    1.796901    1.146687
H       0.410654   -0.190750   -1.098602
H       0.606787   -0.496572    0.617581
H      -1.799351   -0.847126    2.144006
H      -2.817688    0.486178    1.482847
H      -3.859386   -2.182260    0.964252
H      -4.569575   -0.682729   -1.174713
H      -2.311360    0.678361   -1.870561
H      -1.195600   -2.523468    0.810559
H      -2.125140   -2.499900   -2.118405
H      -0.543506   -3.048998   -1.535821
H      -2.002551   -3.930259   -1.079105
