18

O       0.096425    1.316812    0.294950
C       0.043898   -0.064235   -0.033722
C      -1.346099   -0.590675    0.019955
C      -2.365921   -0.896757    1.090408
C      -3.302176    0.113331    0.464477
N      -2.509181   -0.008179   -0.829104
C      -2.827169   -1.430814   -1.258178
C      -2.044363   -1.909809   -0.046427
O      -1.479520   -3.141945    0.199770
H      -0.481563    1.766699   -0.332197
H       0.475032   -0.249293   -1.030549
H       0.668558   -0.589781    0.695646
H      -2.181923   -1.158936    2.125631
H      -4.368262   -0.120366    0.362341
H      -3.183721    1.121548    0.869508
H      -3.896967   -1.650796   -1.352839
H      -2.316954   -1.653016   -2.199021
H      -2.125174   -3.691614    0.657786
