17

C      -0.335709    1.470100   -0.033037
N       0.037785    0.058733    0.029674
C       1.359111   -0.431914   -0.314856
C       2.536286    0.523974   -0.273979
O       2.474762    1.192245    0.990250
C       1.764265    0.375434    1.912214
C       1.075395    1.236232    2.885672
N       0.525344    1.873301    3.676492
C       0.839854   -0.519564    1.084981
H       0.455963    2.174893    0.245647
H      -0.658623    1.687249   -1.055562
H      -1.189939    1.628675    0.630350
H       1.409412   -1.283856   -0.987732
H       3.476095   -0.038729   -0.376385
H       2.512706    1.300392   -1.045534
H       2.452315   -0.273560    2.479493
H       0.473846   -1.427979    1.554806
