15

C      -0.033455    1.521338    0.068404
C      -0.005341    0.022147    0.004815
C      -0.023801   -0.670707   -1.162347
C       0.002761   -2.118122   -1.229509
O      -0.009669   -2.804613   -2.217283
O       0.050627   -2.762507    0.014085
C       0.069120   -2.076310    1.175313
C       0.043689   -0.728429    1.234538
O       0.061301   -0.003194    2.393454
H       0.850069    1.901005    0.592138
H      -0.068840    1.956183   -0.931941
H      -0.902226    1.866151    0.638876
H      -0.060092   -0.163891   -2.119029
H       0.106302   -2.728770    2.041039
H       0.094638   -0.600234    3.148472
