19

O      -0.223449    1.394029    0.635299
C      -0.101340    0.110377    0.145045
C      -0.118354   -0.245423   -1.328899
C      -1.153438   -0.832598   -0.396314
O      -0.580273   -1.952357    0.299401
C       0.392856   -1.086655    0.949617
C      -2.622638   -0.802059   -0.562429
C      -3.371068   -2.098418   -0.778465
C      -3.518995   -1.348587    0.520804
H       0.516043    1.917557    0.307136
H      -0.492477    0.555574   -1.960552
H       0.646130   -0.878289   -1.773942
H       1.421944   -1.433961    0.798113
H       0.177083   -0.993109    2.019761
H      -2.979315    0.065111   -1.108774
H      -4.197215   -2.097203   -1.480649
H      -2.790523   -3.013494   -0.759718
H      -3.034870   -1.772954    1.392538
H      -4.449433   -0.829159    0.720334
