17

C      -0.181765    1.399421    0.047572
N       0.111800   -0.013040    0.020683
C       0.067849   -0.829247   -1.082000
N      -0.009282   -2.097015   -0.876826
C      -0.015985   -2.282684    0.557565
C       1.222241   -1.819484    1.319169
C       0.085518   -0.853400    1.181014
C      -0.821189   -3.336987    1.098553
C      -1.495442   -4.213885    1.570361
H       0.593719    1.961861    0.580032
H      -0.231261    1.771615   -0.978813
H      -1.147829    1.604578    0.529800
H       0.113762   -0.384312   -2.071110
H       1.361486   -2.265265    2.296719
H       2.126408   -1.648386    0.744040
H      -0.485961   -0.505526    2.034315
H      -2.092832   -4.992089    1.975857
