19

O       0.113358    1.409766   -0.010605
C       0.034616   -0.008656    0.001159
C       0.642430   -0.602367    1.299539
C      -0.568102   -0.804424    2.178359
C      -1.709232   -0.755471    1.482696
C      -3.104954   -0.930249    2.013947
C      -3.842822    0.402014    2.020673
O      -4.827043    0.649217    1.376267
C      -1.435136   -0.499250    0.012753
H      -0.344984    1.731201    0.774408
H       0.572597   -0.326169   -0.894816
H       1.150945   -1.557924    1.108887
H       1.393294    0.077585    1.716037
H      -0.500943   -1.009851    3.241817
H      -3.685345   -1.633540    1.407771
H      -3.067666   -1.296912    3.047619
H      -3.371868    1.169676    2.678134
H      -2.096215    0.246457   -0.442433
H      -1.559343   -1.425627   -0.565573
