13

N      -0.066401    1.369234    0.265588
C      -0.008599    0.139561    0.014235
O       1.238293   -0.522782   -0.009977
C       1.630005   -1.247137   -1.073297
C       0.906226   -1.744287   -2.092405
C      -0.547178   -1.834267   -2.201917
O      -1.113317   -2.288410   -3.179596
C      -1.387763   -1.479072   -0.998866
N      -1.150660   -0.641522   -0.074879
H       0.867387    1.776614    0.298666
H       2.705479   -1.392638   -1.036793
H       1.453721   -2.231849   -2.891179
H      -2.342801   -2.007795   -0.973801
