16

N       0.064161   -1.131951   -0.056520
C      -0.009379    0.023955   -0.027562
C      -0.053712    1.447479    0.015087
C      -1.205128    2.135821    0.045877
C      -1.074840    3.642586    0.073103
C      -0.096777    4.045573    1.204405
C       0.940068    3.721802    0.105331
C       1.260215    2.222368    0.023506
O      -0.064279    4.028677   -0.905969
H      -2.173599    1.649462    0.058673
H      -2.016278    4.176272   -0.061704
H      -0.134651    5.115569    1.412127
H      -0.099516    3.464573    2.128111
H       1.831131    4.346578    0.010893
H       1.883793    1.908398    0.869300
H       1.828294    2.006532   -0.888640
