14

O       2.446744    0.078526    0.013466
C       2.239285    1.218363    0.283494
O       1.300526    1.957754   -0.373499
C       1.189524    3.302660   -0.068822
C      -0.068949    3.793870    0.274457
N      -0.294380    5.078108    0.541990
C       0.744714    5.917123    0.481236
C       2.034404    5.517879    0.144050
C       2.266784    4.177010   -0.147540
H       2.749977    1.796046    1.074156
H      -0.912398    3.110222    0.323788
H       0.533520    6.958552    0.708424
H       2.839854    6.242030    0.098344
H       3.247555    3.822783   -0.445496
