17

O      -0.052665    1.371460    0.116317
C       0.026568   -0.041128    0.052118
C       0.839973   -0.573857    1.132765
C       1.542595   -0.966797    2.026452
C      -1.402458   -0.637078   -0.227411
C      -1.199693   -0.175461   -1.706653
C       0.245141   -0.627694   -1.396684
O       0.131432   -2.035427   -1.190906
C      -1.057852   -2.121276   -0.359203
H       0.842159    1.705207    0.241215
H       2.158386   -1.323738    2.814960
H      -2.256428   -0.348840    0.383079
H      -1.723134   -0.734769   -2.484241
H      -1.307691    0.898124   -1.835046
H       1.119546   -0.401371   -2.005280
H      -0.808441   -2.604141    0.590357
H      -1.835358   -2.698688   -0.871689
