18

O      -0.085487   -0.101048   -0.072890
C      -0.077101    1.113347   -0.030215
C      -1.328854    1.964328   -0.215149
C      -1.275666    3.256473    0.610006
C      -0.063501    4.073677    0.176514
O       0.488394    4.906933    1.219903
C       1.648193    4.057806    1.352043
C       1.242364    3.248244    0.096430
N       1.078044    1.819256    0.209393
H      -1.427255    2.196225   -1.284464
H      -2.182238    1.337749    0.050116
H      -2.195617    3.838045    0.498673
H      -1.172976    3.013611    1.672930
H      -0.286916    4.662106   -0.720944
H       2.581601    4.627397    1.289474
H       1.634046    3.472021    2.279955
H       1.854674    3.506131   -0.774462
H       1.904207    1.240481    0.274574
