18

C       0.190395    1.596019   -0.262756
C      -0.012435    0.098345   -0.170135
C      -1.432310   -0.420950   -0.314380
C      -2.327523   -0.041331    0.886798
C      -3.670415   -0.595985    0.778616
C      -4.770910   -1.065246    0.661644
C       1.110015   -0.799294   -0.484388
O       0.740429   -0.545782    0.873229
H       1.244941    1.847376   -0.127254
H      -0.136187    1.972119   -1.238310
H      -0.380611    2.123803    0.507860
H      -1.876034   -0.034561   -1.239059
H      -1.410945   -1.511179   -0.398773
H      -1.847222   -0.401114    1.804642
H      -2.394717    1.049468    0.979076
H      -5.746421   -1.474735    0.573576
H       0.912970   -1.809040   -0.842860
H       2.066921   -0.379530   -0.793397
