19

C      -0.031012    1.420189   -0.029704
C      -0.005721   -0.034697   -0.010469
C       0.013615   -1.240760    0.005997
C       0.064269   -2.661441    0.040246
C       1.195315   -3.551462    0.572932
C       0.491050   -4.720592   -0.161746
C      -0.847380   -4.895529    0.610021
C      -1.224826   -3.528374    0.048771
C      -0.237578   -3.654521   -1.078522
H       0.876254    1.836334    0.422892
H      -0.093572    1.807191   -1.053333
H      -0.887867    1.816684    0.527098
H       2.145435   -3.283060    0.104125
H       1.327460   -3.638845    1.657630
H       1.056314   -5.583128   -0.506453
H      -1.468087   -5.682106    0.171259
H      -0.790552   -5.031340    1.696189
H      -2.190584   -3.040679    0.034310
H      -0.320743   -3.504709   -2.144950
