16

O      -0.087518   -0.063729   -0.219943
C      -0.033131    1.113234    0.028019
C       1.234849    1.926862    0.015651
C       1.099742    3.220610   -0.854430
C       0.841820    4.051096    0.427050
C       1.403865    2.865615    1.274442
C       0.748899    2.512110    2.517441
C       0.187182    2.218432    3.539591
H      -0.955850    1.690497    0.266378
H       2.072550    1.262666   -0.200552
H       2.047585    3.468389   -1.337097
H       0.315069    3.219345   -1.614522
H       1.356079    5.008540    0.527457
H      -0.222768    4.203310    0.617128
H       2.474860    3.008673    1.449593
H      -0.302679    1.955563    4.444416
