22

C      -0.255457    1.579929   -0.017469
C       0.041120    0.083367    0.020092
C       0.977449   -0.587201   -0.998397
C       1.547787   -1.478326    0.058568
N       2.406321   -0.546297   -0.649000
C       2.855002    0.514836    0.279216
C       2.042186    0.341429    1.587060
C       0.894148   -0.588183    1.165646
C       0.127203   -1.243831    2.297518
H       0.643663    2.198739    0.035258
H      -0.774410    1.838209   -0.947637
H      -0.909931    1.872303    0.811719
H      -0.912225   -0.457692   -0.028771
H       0.737375   -0.801459   -2.035350
H       1.754953   -2.542462    0.079391
H       3.927614    0.379125    0.448500
H       2.722408    1.495481   -0.186035
H       2.647852   -0.137948    2.365032
H       1.682505    1.292172    1.993436
H      -0.391754   -0.498426    2.910901
H      -0.626404   -1.941856    1.917427
H       0.799766   -1.803368    2.958441
