23

C      -0.143085    1.638916   -0.059010
C      -0.007181    0.122783   -0.021143
C       1.062097   -0.636269   -0.868026
C       2.400015   -0.102755   -0.317970
C       2.117543   -0.219385    1.224468
C       2.410809    1.016167    2.075020
C       0.649253   -0.696878    1.145551
C       0.805157   -1.837688    0.098396
O      -0.392108   -2.558622   -0.095683
H       0.812475    2.167715   -0.055204
H      -0.675143    1.941557   -0.968492
H      -0.727598    2.003044    0.793544
H      -0.983260   -0.323247   -0.218192
H       0.969746   -0.745033   -1.951709
H       3.252652   -0.712897   -0.632099
H       2.602155    0.926367   -0.630675
H       2.721899   -1.038230    1.634432
H       1.832151    1.890530    1.770496
H       2.184618    0.822272    3.129478
H       3.472117    1.281971    2.011140
H       0.125136   -0.875388    2.086117
H       1.650553   -2.523760    0.255463
H      -0.322843   -3.027139   -0.933495
