16

N      -0.028048    1.102763   -0.988712
C      -0.009810    0.165885   -0.127865
O       1.124815   -0.095107    0.583893
C       1.341373   -1.368997    1.172976
C       0.552932   -1.585681    2.455686
O      -0.130959   -0.465911    2.981343
C      -0.922283   -1.534358    2.422067
C      -1.651947   -1.298076    1.158180
C      -1.249075   -0.603173    0.086232
H       0.887461    1.555201   -1.027716
H       1.117229   -2.173072    0.459039
H       2.412807   -1.397787    1.387921
H       1.036878   -2.230271    3.191555
H      -1.469836   -2.100629    3.173151
H      -2.637214   -1.754520    1.113513
H      -1.935866   -0.486717   -0.744696
