22

C      -0.848618    1.078886   -0.059941
C       0.133435   -0.088612   -0.115844
C       1.333005    0.152258   -1.061110
N       2.326726   -0.769622   -0.544732
C       2.113799   -1.174080    0.743497
O       2.846127   -1.885451    1.398742
C       0.795077   -0.527459    1.221369
C       1.188596    0.656630    2.128854
C      -0.037564   -1.539514    2.012102
H      -0.366048    2.001396    0.276919
H      -1.276296    1.271592   -1.049914
H      -1.679498    0.865896    0.620070
H      -0.399159   -0.966983   -0.502107
H       1.083632   -0.066882   -2.104657
H       1.677139    1.196683   -1.014057
H       3.202580   -0.967125   -1.002347
H       1.766754    1.415687    1.591129
H       0.301172    1.141280    2.547109
H       1.804221    0.294188    2.956761
H       0.550897   -1.936738    2.843516
H      -0.943082   -1.074739    2.416777
H      -0.339376   -2.384055    1.384127
