20

C      -0.196508    1.629606    0.266623
C       0.006219    0.122115    0.060192
C       0.786698   -0.494598    1.228556
C      -1.327649   -0.626243   -0.129911
C      -2.117599   -0.225366   -1.362661
C      -3.593987   -0.294658   -1.391820
O      -2.924569    0.956381   -1.272787
C      -1.420813   -0.371745   -2.633348
N      -0.847518   -0.510518   -3.627346
H       0.768408    2.132722    0.384289
H      -0.718554    2.093277   -0.573848
H      -0.786656    1.823623    1.170100
H       0.598526   -0.022252   -0.853657
H       0.233574   -0.389697    2.169753
H       0.975788   -1.561432    1.068713
H       1.753483    0.001836    1.356575
H      -1.135041   -1.704768   -0.191182
H      -1.976517   -0.462405    0.738715
H      -4.107203   -0.465646   -2.335570
H      -4.109246   -0.641901   -0.497791
