18

C      -0.397630    1.450471   -0.220618
N      -0.010804    0.063391    0.017469
C       1.334893   -0.440384   -0.283948
C       2.478384    0.443135   -0.605515
C       3.081873    1.246433    0.281884
C       2.668556    1.308140    1.699941
O       1.395268    1.910989    2.021430
C       1.505563    0.495636    2.126001
C       0.798762   -0.386149    1.131521
H       0.416872    2.177081   -0.173498
H      -0.864753    1.493415   -1.210506
H      -1.147724    1.735087    0.522014
H       1.323809   -1.385690   -0.824437
H       2.851795    0.402122   -1.625609
H       3.935766    1.846688   -0.018021
H       3.443280    1.548133    2.426114
H       1.486320    0.122469    3.149801
H       0.443389   -1.315048    1.575875
