21

C      -0.162269    1.564669   -0.035954
C      -0.039076    0.068020    0.012431
C      -1.239490   -0.892462    0.071628
C      -0.454226   -1.801538    1.069037
C       0.737570   -0.841353    0.981732
C       1.201810   -0.658891   -0.445219
C       1.262091   -1.750996   -1.503387
C       2.474884   -2.635041   -1.309773
O       3.311861   -2.855604   -2.147060
H       0.803077    2.049105    0.143795
H      -0.523694    1.903161   -1.014976
H      -0.867027    1.930703    0.719744
H      -2.112476   -0.430065    0.538858
H      -1.559082   -1.338856   -0.876189
H      -0.911404   -1.811021    2.060581
H      -0.274726   -2.839684    0.769285
H       1.372438   -0.561879    1.815367
H       2.053590    0.017403   -0.503068
H       0.376377   -2.395803   -1.440662
H       1.296761   -1.328954   -2.512537
H       2.552344   -3.081037   -0.290553
