17

C       0.025679    1.401243   -0.286717
C       1.360382    0.843858    0.055272
N       0.184785   -0.019398    0.018142
C      -0.287489   -0.553018    1.272959
C      -1.302586    0.154602    2.241680
C      -2.445834   -0.085710    1.222978
C      -1.604404   -1.375647    1.344927
O      -1.573639   -1.180017    2.813725
H      -0.446416    2.039801    0.456862
H      -0.231796    1.636997   -1.315742
H       2.102406    0.662940   -0.717558
H       1.771059    1.107164    1.028987
H       0.525547   -1.046959    1.809755
H      -1.160226    0.975392    2.946215
H      -3.441125   -0.145647    1.665473
H      -2.432421    0.452929    0.274229
H      -1.811094   -2.379497    0.973671
