20

C      -0.072064    1.583582    0.001571
C      -0.044697    0.052888   -0.021294
C       0.773366   -0.506323   -1.182353
N       2.249869   -0.248028   -1.108314
C       2.725702   -1.144252   -2.237145
C       2.265721   -2.337859   -1.349354
C       2.703873   -1.382348   -0.201162
C       0.769549   -2.051578   -1.312282
O      -0.165510   -2.805115   -1.349332
H       0.942081    1.987213    0.065069
H      -0.532996    1.982184   -0.908977
H      -0.646124    1.953645    0.856349
H       0.344907   -0.325797    0.931067
H      -1.058915   -0.352213   -0.114477
H       0.400216   -0.067220   -2.116610
H       2.238790   -0.977045   -3.202046
H       3.810920   -1.077858   -2.342790
H       2.582028   -3.373240   -1.463160
H       3.786475   -1.338282   -0.064546
H       2.207063   -1.447657    0.769172
