18

C       0.010885    1.489210   -0.012192
C       1.275468    0.709115    0.004472
C       1.986603    0.435634    1.353121
C       0.997530   -0.420195    2.123945
C      -0.347017    0.035921    2.599285
C      -0.205341   -0.635538    1.244779
C       0.106460   -2.121745    1.422577
O       1.200546   -1.826413    2.348346
N      -0.056569    0.024089   -0.035621
H      -0.283446    2.027065    0.884586
H      -0.319230    1.967291   -0.931053
H       1.874601    0.656159   -0.900338
H       2.898784   -0.142789    1.186782
H       2.268410    1.360499    1.865815
H      -0.827048   -0.514839    3.403019
H      -0.534136    1.102273    2.616010
H      -0.656009   -2.762376    1.880273
H       0.482132   -2.580838    0.502255
