18

C      -0.342073    1.424998    0.266786
N       0.013263    0.019274    0.140924
C       1.375762   -0.350436   -0.234709
C       0.874364   -0.619800    1.140921
C       1.441039    0.099578    2.350263
C       0.320307   -2.002853    1.397445
O       0.780868   -3.032180    0.964305
C      -0.967292   -2.087211    2.233703
O      -1.473794   -1.151951    2.795431
H       0.488771    2.076773    0.574590
H      -0.707986    1.778033   -0.702115
H      -1.150948    1.522115    0.996704
H       1.477028   -1.158027   -0.953876
H       2.106682    0.451488   -0.334369
H       1.853755    1.073473    2.079650
H       0.672766    0.243644    3.113849
H       2.254208   -0.490731    2.785906
H      -1.370618   -3.121282    2.283110
