21

C       0.006084    1.588140   -0.154067
C       0.011792    0.057364   -0.229856
C      -1.363126   -0.555896    0.050896
C      -2.431833   -0.181091   -1.009868
O      -3.245643   -1.327383   -1.202243
C      -2.364991   -2.428933   -1.154338
C      -1.427965   -2.131668    0.046084
C      -0.159710   -2.837148   -0.026724
C       0.876334   -3.443540   -0.100387
H       1.006923    1.993180   -0.331538
H      -0.664020    2.031327   -0.898731
H      -0.322602    1.933337    0.832842
H       0.359027   -0.265240   -1.219593
H       0.736455   -0.342339    0.487077
H      -1.697441   -0.211707    1.035031
H      -3.082364    0.642941   -0.708210
H      -1.936579    0.096299   -1.956060
H      -2.952836   -3.340445   -1.028732
H      -1.772954   -2.511093   -2.079896
H      -1.945985   -2.448768    0.957582
H       1.791479   -3.978655   -0.160437
