20

C      -0.012485    1.559002    0.006874
C       0.063357    0.037161    0.020467
O      -1.242363   -0.548196   -0.046205
C       0.798932   -0.576190   -1.162764
N       2.270397   -0.543172   -1.001037
C       1.515021   -1.788303   -0.703183
C       1.266081   -1.967266    0.782624
C       0.829355   -0.554641    1.253609
O       1.925093    0.239563    1.662346
H       0.984235    2.002569   -0.000394
H      -0.566025    1.899123   -0.873831
H      -0.526726    1.929066    0.901910
H      -1.778827   -0.136216    0.639501
H       0.366983   -0.488052   -2.153951
H       2.715904   -0.613322   -1.911204
H       1.659718   -2.645203   -1.352291
H       0.458464   -2.691813    0.926403
H       2.144354   -2.303443    1.340357
H       0.150633   -0.604703    2.110909
H       2.524693    0.244940    0.899158
