20

C      -0.336050    1.493014   -0.065295
C       0.117184    0.032361    0.051692
C       0.835783   -0.471083   -1.182639
C       0.021752   -1.009132   -2.347186
C       0.886641   -1.941910   -1.527951
N       2.206964   -2.205336   -2.019294
C       2.990345   -1.080756   -2.153238
O       4.073849   -1.032084   -2.688830
C       2.215791    0.085515   -1.513117
H       0.516475    2.163633   -0.214662
H      -1.016180    1.627153   -0.912920
H      -0.857703    1.815767    0.840658
H       0.777049   -0.078842    0.922541
H      -0.754484   -0.605325    0.245062
H      -1.053132   -1.062047   -2.205536
H       0.336427   -0.796485   -3.364344
H       0.446400   -2.698130   -0.887024
H       2.438000   -3.028804   -2.554083
H       2.210983    0.931306   -2.205986
H       2.745608    0.411201   -0.610465
