18

O      -0.000829   -0.051277   -0.251409
C      -0.014236    1.139787   -0.031584
C      -1.326642    1.897312    0.105585
C      -1.612050    2.819770   -1.108405
C      -0.737198    4.046329   -1.200130
C       0.596542    4.064679   -1.218223
C       1.506966    2.862681   -1.150718
C       1.280073    1.933179    0.070226
H      -2.119647    1.149972    0.189842
H      -1.313906    2.504586    1.018104
H      -1.526260    2.218824   -2.024631
H      -2.659249    3.130626   -1.051662
H      -1.259724    4.998109   -1.260608
H       1.090858    5.030449   -1.292494
H       1.412914    2.259258   -2.064502
H       2.546372    3.202244   -1.122289
H       1.275387    2.540216    0.982979
H       2.095329    1.207968    0.132669
