16

O      -0.118874   -0.046327   -0.342386
C      -0.047786    1.128306   -0.088070
C      -1.220260    2.077286    0.094354
C      -0.863191    3.250002    0.657272
C       0.604257    3.159266    0.956188
C       2.040301    3.755029    0.903780
N       2.319437    2.235211    1.100984
C       1.186341    2.310247    2.127611
C       1.158551    2.073347    0.056317
H      -2.228305    1.761549   -0.147213
H      -1.543992    4.045763    0.940197
H       2.398452    4.149049   -0.049812
H       2.387795    4.354533    1.748639
H       1.464454    2.827649    3.048879
H       0.714282    1.345885    2.333734
H       1.477478    2.381147   -0.946047
