15

N      -0.001192    1.411468   -0.036430
C      -0.024486    0.006073   -0.022809
N      -1.177800   -0.633444   -0.089412
C      -1.161655   -1.972930   -0.118711
C       0.043203   -2.661472   -0.055076
O       0.052644   -4.014476   -0.052528
N       1.219275   -2.033552   -0.008310
C       1.200557   -0.706259   -0.004646
N       2.398411   -0.013868    0.063964
H       0.568249    1.800039    0.708341
H      -0.944832    1.776513    0.019864
H      -2.107703   -2.497954   -0.182225
H       0.981509   -4.277678   -0.014755
H       3.202233   -0.592215   -0.139326
H       2.395106    0.858900   -0.448342
