18

O      -0.145250    1.497524    0.393273
C      -0.009577    0.117864    0.076316
C       0.676554   -0.683581    1.196142
O      -0.344247   -1.179308    2.056815
C      -1.615971   -0.751157    1.584149
C      -1.420341   -0.493257    0.083329
C      -2.487055    0.391614   -0.579816
C      -3.816241   -0.215038   -0.534944
N      -4.860315   -0.708673   -0.492362
H       0.732014    1.870286    0.522208
H       0.499521   -0.010618   -0.888859
H       1.246506   -1.530116    0.789445
H       1.371810   -0.045628    1.759721
H      -2.345877   -1.535900    1.798436
H      -1.932369    0.172076    2.092766
H      -1.374245   -1.457186   -0.434822
H      -2.517906    1.366417   -0.085478
H      -2.226592    0.577965   -1.627709
