20

C      -0.089347    1.563485   -0.035789
C      -0.128571    0.040090   -0.175541
C       0.908173   -0.495252   -1.173346
O       2.233147   -0.116589   -0.817824
C       0.798467   -1.999597   -1.336739
C      -0.174562   -2.612232   -2.297800
C       1.318047   -2.695775   -2.586318
C       1.866435   -1.934353   -3.674310
N       2.298394   -1.333215   -4.563506
H       0.911499    1.898765    0.247417
H      -0.345290    2.050447   -0.982946
H      -0.798992    1.909046    0.721480
H       0.051391   -0.432328    0.801988
H      -1.125561   -0.289383   -0.492337
H       0.743036   -0.021971   -2.149076
H       2.416767   -0.469222    0.060444
H       0.976971   -2.557197   -0.419076
H      -0.679764   -3.532684   -2.029585
H      -0.753029   -1.944553   -2.926856
H       1.794126   -3.660171   -2.445717
