15

C       0.012602   -1.237958   -0.100580
C      -0.029525   -0.037125   -0.105340
C      -0.042452    1.418930   -0.102114
C       1.369954    2.010751    0.142866
C       1.366981    3.499800    0.156542
C       1.688593    4.429632    1.098134
N       1.477402    5.665490    0.535647
N       1.060966    5.556108   -0.642185
O       0.971049    4.146836   -0.940388
H       0.032472   -2.299685   -0.101903
H      -0.426211    1.795142   -1.056956
H      -0.726921    1.785045    0.672566
H       1.762604    1.648868    1.096332
H       2.044704    1.653016   -0.642128
H       2.047645    4.310956    2.105827
