18

C       0.096147    1.533944    0.206072
C      -0.065281    0.054340   -0.152959
N      -1.430031   -0.413048   -0.054733
C      -2.328044   -0.600264    1.086466
C      -3.388209   -1.164176    0.080429
C      -4.647713   -0.466457   -0.031360
C      -5.687205    0.129141   -0.129395
C      -2.298638   -0.864809   -1.011486
O      -2.210476   -0.985217   -2.202402
H       1.143962    1.833759    0.108902
H      -0.506108    2.161870   -0.456482
H      -0.212857    1.729723    1.237853
H       0.238838   -0.125944   -1.188562
H       0.577483   -0.562753    0.489642
H      -1.965524   -1.320942    1.827816
H      -2.629902    0.325932    1.583327
H      -3.539254   -2.242093    0.192257
H      -6.608423    0.648568   -0.224474
