19

C       0.140065    1.439892    0.081431
N       0.121222   -0.010846    0.055067
C       0.461643   -0.616542   -1.010286
O       0.898074    0.076564   -2.119337
C       0.832814   -0.605952   -3.367838
C       1.515481   -1.968764   -3.310064
C       0.977500   -2.741941   -2.134178
N       1.003941   -4.120344   -2.241724
C       0.463191   -2.069898   -1.084922
H       1.126779    1.807740    0.396684
H      -0.086308    1.904345   -0.886396
H      -0.584303    1.790556    0.823404
H      -0.217498   -0.734282   -3.663436
H       1.316495    0.053948   -4.092397
H       1.324566   -2.510678   -4.243973
H       2.603560   -1.850110   -3.218000
H       1.715919   -4.505006   -2.844254
H       0.901901   -4.635096   -1.378996
H       0.075195   -2.577819   -0.209918
