16

O      -0.118754    1.326792    0.086243
N       0.023722   -0.067689   -0.022153
C      -1.099898   -0.648634   -0.039211
C      -2.559707   -0.269667    0.065476
O      -3.225557   -0.903305   -1.048413
C      -2.916504   -1.707707    0.090180
C      -1.449258   -2.114090   -0.028038
C      -0.828055   -3.255706   -0.776807
C      -0.721564   -3.195234    0.726135
H       0.797143    1.624844    0.086387
H      -3.026201    0.597660    0.511097
H      -3.728087   -2.212920    0.599517
H      -1.491460   -3.991070   -1.219169
H       0.058634   -3.032789   -1.359891
H       0.232895   -2.929450    1.166626
H      -1.316867   -3.888178    1.311998
