15

C      -0.076004   -1.248832   -0.096068
C      -0.025805   -0.048741   -0.025431
C       0.007228    1.397860    0.031538
C       0.076608    2.130627    1.419617
C       1.554960    1.657825    1.532361
C       1.383960    2.154067    0.067343
C       0.606036    3.370492    0.644648
H      -0.116625   -2.308143   -0.155578
H      -0.720332    1.828586   -0.664395
H      -0.691136    2.106284    2.193592
H       2.206427    2.257977    2.172591
H       1.720397    0.588830    1.673776
H       2.131754    2.156900   -0.726293
H      -0.096396    3.873924   -0.025722
H       1.192738    4.086763    1.224281
