17

C       0.041939    1.511924    0.298628
C       0.042506    0.038236   -0.135348
C      -1.338857   -0.540921   -0.188109
N      -2.106858   -0.920580    1.054976
C      -1.906474   -1.926438    0.002630
C      -3.044099   -1.693347   -1.000245
C      -2.412640   -0.288041   -1.229520
O      -2.566974    0.562453   -2.057678
H       1.058833    1.914604    0.308736
H      -0.558243    2.111188   -0.391412
H      -0.381318    1.628339    1.301188
H       0.499228   -0.050573   -1.128554
H       0.659968   -0.561305    0.546622
H      -1.392570   -1.071804    1.769890
H      -1.360610   -2.843955    0.180330
H      -2.983964   -2.291740   -1.913686
H      -4.054739   -1.727514   -0.588704
