21

C      -0.179860    1.497624    0.077246
C       0.018750   -0.019925   -0.011415
C       0.739922   -0.422267   -1.322910
C      -0.004798   -0.082331   -2.529033
C      -0.639162    0.199349   -3.510715
C       0.792770   -0.550445    1.193256
C       0.099661   -0.505202    2.574934
O       0.262774   -1.925505    2.757361
C       0.820871   -2.078193    1.437830
H       0.785471    2.017650    0.098988
H      -0.741730    1.868089   -0.784052
H      -0.727736    1.772715    0.983962
H      -0.969170   -0.500590   -0.019612
H       1.725397    0.063237   -1.352005
H       0.933277   -1.502770   -1.315736
H      -1.189591    0.444438   -4.384953
H       1.793308   -0.105397    1.214450
H       0.602489    0.070671    3.360661
H      -0.960261   -0.215402    2.546543
H       0.160704   -2.661874    0.779761
H       1.807038   -2.556882    1.462262
