16

C      -0.107919    1.427836   -0.135340
C       1.298572    0.918018    0.083011
O       1.763873    0.878446    1.409480
C       1.408186   -0.386583    1.979831
C       0.081661   -0.780022    1.303812
O       0.007860   -2.164239    0.892698
C      -0.056905   -2.138106   -0.467608
N      -0.015488   -1.024703   -1.080399
C       0.152239   -0.047796   -0.042391
H      -0.610952    1.918817    0.691916
H      -0.338227    1.816441   -1.122066
H       2.059222    1.034811   -0.681498
H       2.164268   -1.153288    1.756056
H       1.340561   -0.254452    3.062070
H      -0.796226   -0.568526    1.921614
H      -0.136744   -3.114104   -0.931046
