9

O       0.046969    0.016270    0.002672
C       0.003605    1.197084    0.009553
O      -1.148494    1.964710    0.029573
C      -0.773040    3.273476    0.031302
C       0.563713    3.344815    0.013246
O       1.070768    2.054556   -0.000661
C       1.445903    4.442164    0.006896
N       2.159410    5.353823    0.001882
H      -1.542758    4.025080    0.045920
