21

O      -0.166657    1.591385   -0.262898
C      -0.065685    0.205473    0.013486
C       0.833533   -0.500994   -1.011782
C       2.264181    0.063011   -1.068259
C       3.092912   -0.628882   -2.125108
O       4.132665   -1.201295   -1.924029
C       0.219991   -0.193363    1.496192
C      -0.976505   -1.181154    1.426957
C      -1.460240   -0.459888    0.139777
H       0.658530    2.014860   -0.003935
H       0.869910   -1.572590   -0.780839
H       0.364714   -0.401097   -1.998743
H       2.211877    1.126830   -1.342022
H       2.782083   -0.028431   -0.108743
H       2.654907   -0.581395   -3.150276
H       1.205570   -0.602391    1.734346
H       0.013385    0.651013    2.159080
H      -0.657802   -2.209234    1.237473
H      -1.660507   -1.186225    2.277254
H      -2.215128    0.301278    0.348253
H      -1.794938   -1.076398   -0.698498
