19

C       0.188540    1.629571   -0.044423
C      -0.013136    0.101075    0.027450
C       0.405507   -0.566388   -1.253829
C       1.545199   -1.252320   -1.314085
N       2.343040   -1.417059   -0.189826
C       1.886543   -1.165486    1.102080
O       2.524597   -1.543875    2.070598
N       0.687262   -0.500072    1.174582
C       0.138656   -0.243974    2.495130
H       1.246226    1.866594   -0.191845
H      -0.376017    2.040401   -0.887614
H      -0.159729    2.126626    0.866008
H      -1.085716   -0.081801    0.194204
H      -0.211849   -0.432588   -2.132026
H       1.914869   -1.718156   -2.220029
H       3.152196   -2.014596   -0.216305
H       0.659622   -0.877192    3.211188
H       0.263356    0.802141    2.801395
H      -0.932453   -0.478457    2.501565
