14

O      -0.052640    1.372992   -0.077842
C      -0.003506   -0.027891   -0.017927
C      -0.475460   -0.693871    1.269481
C      -1.360371   -0.684793    0.051988
C       1.052850   -0.645140   -0.769249
C       1.976631   -1.124943   -1.390075
C       3.002629   -1.680994   -2.087095
C       3.916850   -2.172036   -2.705496
H       0.774604    1.711612    0.283612
H      -0.004307   -1.623308    1.566430
H      -0.723893   -0.013486    2.076008
H      -2.198489    0.002271    0.041987
H      -1.505241   -1.606975   -0.496900
H       4.716848   -2.607528   -3.250900
