19

C      -0.359571    1.527681   -0.516401
C      -0.111899    0.092417   -0.114078
C      -1.287545   -0.647662    0.525796
C      -1.813176    0.009916    1.718224
C      -2.225016    0.569034    2.702923
C      -2.778283    1.227194    3.885862
O      -3.920827    2.027370    3.610410
C       0.917866   -0.703408   -0.796980
O       1.152446   -0.162973    0.506628
H       0.550309    1.968669   -0.929643
H      -1.152761    1.588565   -1.269692
H      -0.672295    2.117450    0.349959
H      -2.089305   -0.747646   -0.218863
H      -0.962431   -1.663816    0.776300
H      -2.997140    0.468700    4.654646
H      -2.037074    1.907924    4.319017
H      -4.546407    1.476656    3.128366
H       0.828059   -1.788533   -0.844273
H       1.498013   -0.254527   -1.602346
