15

O      -0.000530    1.396831   -0.310740
C       0.056696    0.040659    0.096713
C      -1.320823   -0.546687    0.226990
C      -2.346178    0.039215    1.182340
O      -3.314833   -0.999882    1.411195
C      -2.921254   -2.192444    0.881860
O      -3.488038   -3.222535    1.094131
C      -1.693030   -1.952051    0.036172
O      -1.956154   -0.974952   -0.987651
H      -0.363908    1.416471   -1.203161
H       0.646356   -0.576743   -0.594940
H       0.558980    0.036110    1.069770
H      -1.893760    0.315776    2.140499
H      -2.859016    0.906714    0.761389
H      -1.028061   -2.770156   -0.215699
