18

C       0.050625    1.565158   -0.010083
C       0.110161    0.071118    0.043591
N       0.584698   -0.722889   -1.089404
C       1.174303   -1.748327   -0.174454
C       0.723344   -0.906725    1.029943
N       1.383648   -0.628545    2.248695
C      -0.801547   -0.787679    0.942022
C      -1.492962   -0.161153    2.029897
N      -2.089146    0.332039    2.891125
H       0.993897    1.964747   -0.393396
H      -0.754779    1.901912   -0.672648
H      -0.134766    1.980012    0.983569
H      -0.152094   -1.073920   -1.696525
H       0.760608   -2.761427   -0.250176
H       2.263384   -1.799419   -0.286498
H       1.291802   -1.384142    2.919435
H       2.369996   -0.439959    2.108217
H      -1.358459   -1.600591    0.479619
