13

N       0.019682    1.397398    0.090651
C      -0.036264    0.021344   -0.004923
C      -1.162433   -0.728455    0.091286
O      -2.386420   -0.200657    0.224238
C      -1.069535   -2.171661    0.043563
N      -2.149340   -2.847741    0.132543
O       0.169617   -2.702409   -0.095204
N       1.358624   -1.831557   -0.216318
N       1.183206   -0.617100   -0.162830
H       0.826167    1.809829   -0.355661
H      -0.848252    1.869104   -0.117591
H      -2.983322   -0.975876    0.257879
H      -1.993355   -3.851834    0.086904
