15

N      -0.086342    1.298648   -0.021716
C      -0.120099    0.056035   -0.221758
O      -1.071233   -0.693869    0.394741
C      -1.007666   -2.063696    0.196726
C      -1.157871   -2.746008   -1.145879
C      -2.111826   -3.058392   -0.022050
O      -1.535170   -3.999273    0.885284
C      -0.489516   -3.050873    1.239045
H       0.670485    1.717322   -0.558559
H       0.542159   -0.534713   -0.865955
H      -1.575210   -2.105581   -1.917391
H      -0.447393   -3.494649   -1.486034
H      -3.190146   -2.973842   -0.070283
H       0.516751   -3.464765    1.109712
H      -0.625351   -2.687473    2.263153
