17

N       0.071246    1.315170    0.519327
C      -0.054120    0.124553    0.071270
N      -1.262485   -0.492676   -0.100319
C      -2.516217    0.222159    0.057142
C      -3.620686   -0.755993    0.362065
C      -4.938001   -0.658870   -0.273719
O      -3.983003   -1.622399   -0.723443
C       1.131624   -0.751544   -0.277871
O       2.268300   -0.378144   -0.162310
H       1.068468    1.518908    0.608168
H      -1.296169   -1.313444   -0.686283
H      -2.388591    0.938489    0.873386
H      -2.764644    0.797769   -0.846122
H      -3.543168   -1.265161    1.323079
H      -5.810750   -1.067355    0.232513
H      -5.141146    0.156367   -0.966576
H       0.890303   -1.772541   -0.651859
