18

C      -0.092763    1.376466   -0.042603
O      -0.007226   -0.036110    0.021187
C       0.640887   -0.595852    1.078276
C       1.235290    0.120831    2.118121
N       1.866160   -0.460017    3.145152
C       1.920391   -1.789286    3.160347
C       1.355604   -2.587038    2.165626
C       0.697111   -2.000933    1.092507
C       0.065664   -2.798831   -0.014114
H       0.900809    1.839204   -0.093874
H      -0.643906    1.605104   -0.956133
H      -0.633730    1.787511    0.818989
H       1.206393    1.205602    2.131581
H       2.436670   -2.244276    4.001962
H       1.429805   -3.668413    2.228487
H      -1.006567   -2.588242   -0.087484
H       0.498846   -2.535132   -0.984776
H       0.201003   -3.870355    0.149652
