17

C      -0.009351    1.359334   -0.227179
N       0.201321   -0.070427   -0.117749
C       0.893909   -0.766036   -1.063569
O       1.311476   -0.302671   -2.104562
N       1.164194   -2.102384   -0.671934
C       0.160316   -3.098378   -0.377434
C       1.009867   -3.194802   -1.618596
C       0.311644   -2.934513   -2.928500
O      -0.764699   -2.400742   -3.014589
H       0.671054    1.928242    0.418776
H       0.178486    1.640184   -1.263749
H      -1.040341    1.615753    0.034871
H       0.023773   -0.522553    0.763640
H       0.366680   -3.751650    0.466112
H      -0.881242   -2.840725   -0.554242
H       1.850062   -3.883499   -1.662476
H       0.854298   -3.296850   -3.825804
