17

C       0.232711    1.341474    0.328071
C      -0.086289   -0.135777   -0.010098
C      -1.531205   -0.334208   -0.134336
C      -2.721487   -0.469908   -0.231783
C       0.655123   -0.596042   -1.243359
C       0.134959   -0.972424   -2.441745
O       1.122422   -1.307601   -3.315117
C       2.299751   -1.142875   -2.658783
C       2.082192   -0.710285   -1.391295
H       1.309966    1.475300    0.459577
H      -0.100277    1.995606   -0.481639
H      -0.272696    1.641371    1.249763
H       0.259682   -0.745928    0.836787
H      -3.772454   -0.600624   -0.310171
H      -0.874192   -1.058523   -2.806309
H       3.187953   -1.374019   -3.223377
H       2.835357   -0.500952   -0.647098
