25

C      -0.032101    1.559368    0.180992
C       0.028951    0.027570    0.093903
C      -1.343276   -0.630825    0.055163
C      -2.236046   -0.458719   -1.210314
C      -2.679124   -1.937907   -1.053226
C      -1.440961   -2.170382   -0.146418
C       1.333083    2.214103    0.207672
C       2.063431    2.512312   -1.078417
C       1.512513    3.641478   -0.240672
H      -0.601118    1.950575   -0.673334
H      -0.596467    1.848408    1.078859
H       0.595424   -0.261603   -0.802132
H       0.595599   -0.362014    0.951668
H      -1.915398   -0.341545    0.946096
H      -3.010217    0.312653   -1.195863
H      -1.621587   -0.315921   -2.106216
H      -3.613665   -2.022017   -0.490834
H      -2.767179   -2.541734   -1.959574
H      -0.587267   -2.547150   -0.720205
H      -1.563271   -2.796114    0.741578
H       1.960066    1.900549    1.039692
H       3.138288    2.372445   -1.113766
H       1.557102    2.282631   -2.010849
H       0.638987    4.167225   -0.612936
H       2.211187    4.271884    0.298453
