17

C      -0.069074    1.477061    0.063577
C       0.015544   -0.014338   -0.005873
C      -0.034599   -0.783737   -1.094920
C       0.020551   -2.257562   -0.782602
C       0.490309   -2.263018    0.705532
C       0.118261   -0.853101    1.252173
C      -0.048995   -3.366154    1.493376
N      -0.484066   -4.237483    2.116461
H       0.819380    1.903379    0.546235
H      -0.164161    1.921476   -0.930486
H      -0.930990    1.796019    0.663480
H      -0.149577   -0.413431   -2.107914
H      -0.965290   -2.728478   -0.889883
H       0.707823   -2.820992   -1.421651
H       1.581702   -2.353404    0.714832
H       0.866180   -0.483323    1.961751
H      -0.839515   -0.870394    1.789011
