15

C      -0.018762    1.373850    0.082967
N       0.000868   -0.065174   -0.083427
C       0.637638   -0.634673   -1.145253
N       1.160532    0.058618   -2.086218
C       0.659156   -2.119435   -1.132453
N       1.175151   -2.908541   -2.028794
C       0.914975   -4.144684   -1.499650
N       0.284776   -4.144059   -0.355606
O       0.108309   -2.778329   -0.102728
H       0.988469    1.782003    0.232854
H      -0.435481    1.847071   -0.810289
H      -0.640829    1.620359    0.945252
H      -0.245872   -0.651636    0.694247
H       1.550942   -0.559379   -2.795363
H       1.202287   -5.069825   -1.977599
