19

C      -0.031888    1.517414    0.009185
C      -0.070097   -0.013175    0.003263
C      -1.493430   -0.546481    0.013665
O      -1.418329   -1.978667    0.007371
C      -2.564798   -2.663097    0.014233
C      -2.786227   -4.006464    0.010419
C      -4.215235   -4.151982    0.022139
C      -4.741125   -2.903967    0.031773
O      -3.727521   -1.970256    0.027096
H       0.999121    1.881415    0.001471
H      -0.537976    1.933654   -0.868693
H      -0.522204    1.926418    0.899327
H       0.444679   -0.403573   -0.881832
H       0.460191   -0.410767    0.875910
H      -2.037762   -0.210365    0.905082
H      -2.053334   -0.203394   -0.865357
H      -2.034688   -4.777319    0.000708
H      -4.770532   -5.077127    0.023040
H      -5.738518   -2.500871    0.041947
