15

O       0.185506    1.344595   -0.362487
C      -0.011985    0.009661   -0.067732
C      -0.454917   -0.977595   -1.142840
C      -1.342062   -0.734936    0.037229
N      -1.289610   -1.747970    1.088416
C       0.115576   -1.824707    1.541243
C       0.816685   -0.563523    1.021530
O       1.814402   -0.033284    1.456292
H       1.009428    1.583029    0.090390
H      -0.749829   -0.489900   -2.065519
H       0.046201   -1.932855   -1.265719
H      -2.294062   -0.237491   -0.101984
H      -1.858979   -1.427909    1.864601
H       0.190356   -1.880837    2.628989
H       0.617180   -2.714406    1.138135
