25

C      -0.068628    1.618298   -0.041029
C       0.045398    0.093282    0.069159
C      -1.310553   -0.599504    0.030315
C      -2.140683   -0.624727   -1.283547
C      -2.622898   -2.052506   -0.913800
C      -1.430976   -2.152163    0.091837
C      -0.232324   -2.912148   -0.474965
O      -1.746099   -2.564526    1.411216
C      -2.187955   -3.896156    1.551783
H       0.916397    2.094497   -0.011954
H      -0.553105    1.913696   -0.978074
H      -0.663291    2.030001    0.781954
H       0.680348   -0.280631   -0.743913
H       0.556763   -0.167683    1.004803
H      -1.939176   -0.216115    0.842211
H      -2.905823    0.143442   -1.411772
H      -1.500570   -0.623278   -2.171944
H      -3.575389   -2.030777   -0.377525
H      -2.678316   -2.794983   -1.714171
H       0.049059   -2.521273   -1.457092
H       0.632113   -2.825796    0.190370
H      -0.463020   -3.974074   -0.604827
H      -2.539627   -4.006736    2.580956
H      -3.021137   -4.127546    0.871378
H      -1.388674   -4.631115    1.379927
