21

C      -1.539455   -0.232069   -0.036514
C      -0.020730   -0.067632    0.037461
C       0.732756   -0.607368   -1.203406
C       2.244169   -0.276631   -1.132346
C       3.023512   -0.653121   -2.393265
C       0.511726   -2.039750   -1.375440
C       0.335097   -3.231440   -1.504455
C       0.138539   -4.570816   -1.645618
C      -0.036593   -5.759136   -1.772260
H      -1.952735    0.293851   -0.904475
H      -1.819625   -1.286113   -0.120522
H      -2.019079    0.175005    0.858670
H       0.233503    0.994159    0.140619
H       0.368470   -0.572156    0.929710
H       0.322075   -0.098381   -2.089472
H       2.336909    0.800062   -0.945775
H       2.672713   -0.784787   -0.260419
H       2.962128   -1.727353   -2.590294
H       2.631432   -0.129141   -3.272166
H       4.080094   -0.387820   -2.291519
H      -0.189682   -6.803799   -1.881830
