19

C       0.037665    1.495642   -0.051061
C       0.012422   -0.020143   -0.035132
C       1.334170   -0.755374   -0.172935
C       0.633259   -0.729858    1.155523
C      -1.186059   -0.644070   -0.655378
N      -1.329029   -1.970828   -0.704990
N      -2.509150   -2.166810   -1.324089
C      -3.124787   -1.013942   -1.671329
C      -2.295695    0.005006   -1.253605
H       0.949830    1.868909    0.423307
H       0.011135    1.886806   -1.074609
H      -0.816028    1.916877    0.492188
H       1.320027   -1.684183   -0.730790
H       2.229617   -0.154911   -0.297483
H       1.045418   -0.111916    1.946810
H       0.150226   -1.641726    1.486097
H      -2.828768   -3.108175   -1.473984
H      -4.078655   -1.007641   -2.174744
H      -2.466534    1.062644   -1.364372
