15

O       0.060282    1.427493   -0.037898
C       0.108039    0.027148   -0.016309
C      -1.253509   -0.679639   -0.010527
O      -1.954437   -0.098167   -1.122395
C      -1.065508   -1.191176   -1.378830
C       0.373157   -0.621898   -1.462745
O       0.627443    0.312667   -2.469385
C       1.365045   -1.688366   -1.420700
C       2.162959   -2.586082   -1.366752
H      -0.778998    1.652670   -0.467088
H       0.826536   -0.293517    0.737037
H      -1.844351   -1.052784    0.816931
H      -1.474815   -2.066599   -1.867706
H       0.734710    1.161453   -2.013639
H       2.878833   -3.370092   -1.331697
