21

C       0.432140    1.667097   -0.248934
C       1.652946    1.439447    0.693902
C       1.334991   -0.075128    0.730560
C       0.027093    0.168656   -0.101528
C       0.508674   -0.837561   -1.190478
C       0.798957   -0.354464   -2.626656
C       2.275354   -0.018906   -2.583078
C       2.854061   -0.344252   -1.424620
C       1.884273   -0.954097   -0.450845
H      -0.312728    2.365898    0.139713
H       0.690963    1.981711   -1.262675
H       2.631309    1.724467    0.298808
H       1.526616    1.915054    1.670345
H       1.331951   -0.566708    1.704926
H      -0.970124   -0.008843    0.305091
H      -0.090721   -1.750159   -1.172495
H       0.594814   -1.133887   -3.373141
H       0.182573    0.506910   -2.915344
H       2.791553    0.424178   -3.429084
H       3.905803   -0.199685   -1.199139
H       2.192683   -1.955053   -0.130603
