12

O       0.080980    1.382851    0.075198
C       0.028583   -0.004206    0.049925
C      -0.387366   -0.766361    1.270634
C      -1.323474   -0.712119    0.059997
C      -2.488967    0.116221    0.098942
C      -3.420550    0.880327    0.102969
H      -0.810812    1.720566   -0.083623
H       0.794810   -0.439395   -0.586666
H       0.083892   -1.718406    1.488278
H      -0.677842   -0.179930    2.134215
H      -1.409371   -1.615610   -0.535281
H      -4.270172    1.516983    0.127428
