18

C      -0.057618    1.535392    0.165162
C       0.055549    0.036746   -0.053010
O       0.749190   -0.502930    1.074780
C       0.792010   -1.915493    1.188903
C       1.527076   -2.595600    0.010211
C       1.489516   -2.211372    2.446966
C       2.082290   -2.481673    3.454103
C      -0.593076   -2.467168    1.276861
N      -1.671538   -2.880185    1.309839
H       0.933874    1.985957    0.263505
H      -0.567860    1.999612   -0.683863
H      -0.625608    1.749228    1.074221
H      -0.939782   -0.420613   -0.137773
H       0.606227   -0.176365   -0.979392
H       2.522020   -2.153699   -0.076552
H       1.623861   -3.666425    0.199394
H       0.979217   -2.455389   -0.923561
H       2.596908   -2.711542    4.354897
