18

N      -0.048570    1.406749    0.003410
C      -0.028262    0.001063    0.001667
C      -1.100090   -0.872572   -0.030092
N      -0.584822   -2.132294    0.090477
C      -1.294997   -3.390912    0.014182
C      -1.230356   -4.014601   -1.388530
O      -1.942704   -5.236733   -1.445740
N       0.752621   -2.128761    0.184040
C       1.098231   -0.841707    0.137344
H       0.804115    1.800273   -0.373525
H      -0.834258    1.787736   -0.507884
H      -2.161711   -0.701072   -0.110509
H      -0.847298   -4.072176    0.744815
H      -2.337748   -3.224433    0.297145
H      -1.707769   -3.343864   -2.110279
H      -0.178351   -4.126921   -1.683203
H      -1.435443   -5.899803   -0.966858
H       2.138126   -0.557492    0.213616
