18

C      -0.073647    1.559574    0.040140
C       0.014670    0.045264   -0.015748
C      -1.189905   -0.666978    0.571125
C       0.683553   -0.642439   -1.201063
C       1.263534    0.114747   -2.343377
O       1.108690   -0.221189   -3.491215
C       1.357471   -0.630554    0.182818
C       2.547616    0.143932    0.404237
N       3.499955    0.771483    0.599643
H       0.843737    2.053786   -0.283758
H      -0.896362    1.916155   -0.587940
H      -0.273213    1.881053    1.067611
H      -2.098823   -0.395044    0.024293
H      -1.082326   -1.754544    0.524795
H      -1.331062   -0.383072    1.619540
H       0.262884   -1.596013   -1.502783
H       1.857294    1.014317   -2.081127
H       1.360209   -1.584428    0.700575
