17

C      -0.035758    1.587521   -0.244754
C       0.112768    0.086776   -0.131906
O       1.302093   -0.446939   -0.798358
C       1.654476   -1.190304    0.367358
C       1.988163   -0.270368    1.510962
C       0.546078   -0.582199    1.175556
O      -0.354359   -1.186064    2.051339
C      -0.622442   -0.532025    3.212044
O      -1.406526   -0.947218    4.007175
H       0.820750    2.111605    0.187327
H      -0.119946    1.878744   -1.296114
H      -0.945817    1.914547    0.269654
H      -0.772603   -0.427666   -0.526279
H       2.011037   -2.206099    0.253121
H       2.346381   -0.781127    2.400156
H       2.424829    0.706358    1.325497
H      -0.033804    0.396562    3.319537
