13

C      -0.013260    1.549815    0.004587
C      -0.015031    0.054994   -0.005733
C      -0.160907   -0.720899   -1.111931
F      -0.317729   -0.170906   -2.304317
N      -0.168158   -2.085773   -1.163887
N      -0.025290   -2.740568   -0.077358
N       0.124177   -2.055779    1.056178
C       0.149543   -0.657811    1.245897
O       0.295600   -0.183437    2.354172
H       0.926312    1.922440    0.425716
H      -0.145052    1.954278   -0.998780
H      -0.811929    1.922964    0.654129
H       0.232456   -2.635452    1.879877
