20

C      -0.176116    1.495869    0.009765
C      -0.061014   -0.015282    0.000517
C      -0.801510   -0.821941    1.044787
C       0.703938   -0.700846    1.108122
C       1.602323   -1.877895    0.761047
N       2.679533   -1.576425   -0.184259
C       2.525292   -0.936683   -1.260701
O       1.448199   -0.387013   -1.886422
C       0.126247   -0.630744   -1.364552
H       0.685944    1.954724   -0.485768
H      -1.080462    1.828334   -0.513931
H      -0.222094    1.882555    1.032200
H      -1.395190   -0.277498    1.771339
H      -1.223227   -1.780733    0.758742
H       1.102766   -0.041067    1.873768
H       2.077316   -2.243837    1.677609
H       1.010050   -2.722301    0.386881
H       3.398679   -0.737820   -1.883349
H      -0.064139   -1.708042   -1.360576
H      -0.542822   -0.178115   -2.102344
