13

O      -0.085646   -0.033837    0.366860
C      -0.072082    1.155296    0.143754
N      -1.101417    2.075590    0.052422
N      -0.651635    3.332559   -0.204640
N       0.614554    3.284070   -0.288587
N       1.008986    1.998801   -0.084381
C       2.401795    1.588759   -0.132622
C       2.955741    1.563322   -1.482718
C       3.425974    1.541314   -2.586552
H      -2.086064    1.898642    0.156672
H       2.983858    2.257638    0.509446
H       2.421419    0.587686    0.311629
H       3.838171    1.521762   -3.565418
