23

C      -0.070218    1.581110   -0.374585
C      -0.031896    0.164488    0.211038
C      -1.384013   -0.517979    0.173193
C      -1.836767   -1.276118   -1.054911
C      -1.548189   -2.015841    0.227321
C      -0.386480   -3.011378    0.352550
C      -0.931981   -4.032350    1.368994
O      -2.343669   -3.999944    1.220251
C      -2.685885   -2.634247    1.049558
H       0.916757    2.052858   -0.339844
H      -0.401537    1.564827   -1.418064
H      -0.764730    2.219540    0.182509
H       0.698392   -0.438151   -0.342518
H       0.331266    0.207692    1.246906
H      -2.166330    0.041397    0.686758
H      -2.868812   -1.185011   -1.380295
H      -1.122656   -1.382582   -1.867544
H      -0.184688   -3.496731   -0.607294
H       0.543811   -2.551966    0.697301
H      -0.597343   -5.057390    1.191714
H      -0.645882   -3.746743    2.395355
H      -2.770656   -2.133794    2.030307
H      -3.661013   -2.588698    0.555502
