22

C      -0.192312    1.512917    0.038084
C      -0.174351   -0.017987   -0.124960
C       0.704718   -0.468882   -1.199605
C       1.431627   -0.809273   -2.097938
C       2.309713   -1.262570   -3.174057
C       2.321239   -2.778864   -3.310117
N       1.300613   -3.380613   -4.178356
C       2.722005   -3.502988   -4.548135
C       3.165451   -2.839277   -5.830650
H       0.808495    1.891139    0.263891
H      -0.535053    1.996835   -0.880566
H      -0.863098    1.803489    0.852371
H       0.135380   -0.481259    0.821021
H      -1.194766   -0.376245   -0.313511
H       1.991362   -0.817861   -4.122527
H       3.334166   -0.911214   -2.988252
H       2.537412   -3.287926   -2.371962
H       0.948443   -4.245591   -3.778916
H       3.188909   -4.472698   -4.373782
H       2.649979   -1.889796   -5.989661
H       4.245088   -2.652773   -5.821662
H       2.943520   -3.482719   -6.688806
