19

C       0.417892    1.279119   -0.092962
C      -0.019351   -0.192180   -0.056712
C       0.848946   -1.121799   -0.981030
C       1.698233   -1.551838    0.240623
O       2.860724   -0.760800    0.449389
C       0.593777   -0.988896    1.175034
O       1.006052   -0.296083    2.308941
C      -1.456804   -0.319864   -0.213268
C      -2.647928   -0.444033   -0.332057
H       1.505535    1.358315   -0.029552
H       0.088251    1.748285   -1.024637
H      -0.021052    1.826654    0.744744
H       0.271846   -1.948394   -1.400075
H       1.390083   -0.615815   -1.784858
H       1.934420   -2.618414    0.334870
H       3.505209   -0.965089   -0.234483
H      -0.103935   -1.770447    1.485740
H       1.882692    0.058193    2.110590
H      -3.699532   -0.547432   -0.435307
