23

C      -0.040741    1.488195   -0.155070
C       0.026712   -0.037800   -0.022756
O       0.618413   -0.622094   -1.174976
C       0.706272   -0.537427    1.284113
C       0.702720   -2.071384    1.321166
C       2.097139    0.083917    1.446216
C       3.161475   -0.538858    2.382236
C       4.028157   -0.644016    1.112025
O       2.953403   -0.147768    0.284130
H       0.956349    1.921408   -0.282721
H      -0.628453    1.749721   -1.039027
H      -0.510648    1.950679    0.720715
H      -1.002029   -0.421442   -0.006667
H       1.573095   -0.486492   -1.094025
H       0.103141   -0.160636    2.123135
H       0.999197   -2.458663    2.299907
H      -0.301043   -2.451336    1.108090
H       1.371996   -2.481102    0.561185
H       1.992608    1.164144    1.605767
H       3.538569    0.120064    3.165307
H       2.887602   -1.497488    2.821478
H       4.898870    0.021949    1.080689
H       4.338341   -1.651712    0.814819
