19

C       0.078531    1.259984   -0.557041
C      -0.290599    0.130068    0.378939
C       0.565060   -1.083721    0.511800
N       0.429238   -0.145616    1.625479
C       1.589006    0.653919    1.985156
C       2.352854    0.075439    3.183096
C       1.553230   -0.693539    4.212476
O       3.540741    0.272774    3.292067
H       1.155750    1.330866   -0.724469
H      -0.398549    1.104090   -1.530197
H      -0.270496    2.224061   -0.170596
H      -1.365717   -0.007077    0.491131
H       0.128241   -2.068444    0.656951
H       1.507532   -1.082612   -0.035760
H       2.323170    0.805799    1.181596
H       1.239475    1.649195    2.297094
H       0.679342   -0.116092    4.531037
H       1.160349   -1.612883    3.767247
H       2.189695   -0.930634    5.065816
