21

C      -0.105676    1.568328   -0.074274
C       0.003352    0.038886   -0.067730
C      -1.397688   -0.517139   -0.368040
O      -2.278088   -0.282474    0.725516
C       1.277070   -0.653214   -0.692760
C       2.115479   -0.109486    0.506612
C       0.779755   -0.660850    1.097285
O       0.302005   -0.623585    2.403017
C       1.000260   -1.909034    0.187892
H      -0.227602    1.930066   -1.101900
H      -0.998589    1.857792    0.485888
H       0.745444    2.090467    0.362470
H      -1.829216    0.017889   -1.221630
H      -1.388526   -1.579692   -0.637879
H      -1.827237   -0.586074    1.523156
H       1.576407   -0.650098   -1.738702
H       3.016001   -0.682084    0.744457
H       2.306811    0.959521    0.560117
H       0.852022   -1.187674    2.957801
H       0.147021   -2.540357   -0.049658
H       1.879092   -2.515741    0.422374
