18

O      -0.007309    0.756059   -1.407677
C      -0.039070    1.359778   -0.353284
C      -1.321042    1.785790    0.266966
C      -1.588618    1.634179    1.765280
C      -1.329700    2.993714    1.202381
C      -0.041510    3.762803    1.457514
C       1.245002    3.007559    1.182885
N       1.386880    1.672649    1.762353
C       1.243073    1.807663    0.287861
H      -2.165062    1.640860   -0.397810
H      -2.609673    1.382764    2.030919
H      -0.819171    1.169255    2.364433
H      -2.198957    3.637043    1.101029
H      -0.037767    4.653416    0.816080
H      -0.028218    4.127302    2.493186
H       2.135508    3.632243    1.147163
H       2.360668    1.478507    1.979355
H       2.112966    1.607937   -0.330530
