16

C      -0.083479    1.558195   -0.086011
C      -0.002143    0.043886   -0.044449
C      -1.149220   -0.654812   -0.562885
N      -2.065492   -1.223813   -0.982626
C       1.348499   -0.649834   -0.233546
O       2.475581    0.117564   -0.449166
C       0.702991   -0.676166    1.137776
C       1.313391    0.096516    2.174803
C       1.895564    0.740948    3.008899
H       0.878287    1.994927    0.182201
H      -0.338754    1.889011   -1.096119
H      -0.845728    1.929114    0.604067
H       1.343687   -1.577962   -0.797855
H       2.853336    0.358060    0.407928
H       0.255058   -1.614541    1.447690
H       2.371291    1.308361    3.770972
