20

C      -0.054541    1.394696    0.039556
O      -0.023338   -0.011903    0.006234
C       0.644080   -0.520673   -1.125194
C       0.615749   -2.042079   -1.055066
C       1.323964   -2.691469   -2.246093
C       1.254542   -4.228352   -2.193781
O      -0.068571   -4.731831   -2.178209
C       2.030743   -4.818289   -3.305788
N       2.614828   -5.261861   -4.198803
H       0.958766    1.826370    0.067313
H      -0.580065    1.813373   -0.833636
H      -0.588009    1.688875    0.946514
H       0.156239   -0.169267   -2.052170
H       1.685908   -0.154535   -1.156202
H       1.090310   -2.358220   -0.118250
H      -0.423672   -2.380174   -1.010764
H       0.878209   -2.355581   -3.192120
H       2.379232   -2.394827   -2.279832
H       1.701327   -4.575898   -1.255070
H      -0.487731   -4.507024   -3.017292
