16

O      -0.117604    0.327067    0.870970
C       0.029196    1.142195   -0.007790
C       1.254473    1.935246   -0.193737
C       2.690800    1.564724    0.027433
C       3.217217    2.471384   -1.105028
C       3.731927    3.743516   -0.387939
C       2.292726    3.815208    0.145591
C       1.751014    3.075738   -1.114566
N       2.054449    2.532895    0.947718
H      -0.766648    1.334320   -0.762678
H       3.084854    0.646720    0.443955
H       3.698082    2.019352   -1.969296
H       4.552529    3.653091    0.328522
H       3.930052    4.553679   -1.096111
H       1.851168    4.691378    0.615940
H       1.271756    3.525987   -1.979385
