18

N      -0.011571   -1.167130    0.034809
C       0.008366   -0.012281   -0.002457
C      -0.008575    1.453736   -0.000278
C      -0.922860    1.992883    1.139144
N      -0.795048    3.431215    1.296723
C       0.571804    3.802961    1.670214
C       1.670428    3.151105    0.820104
C       2.193245    1.803296    1.183279
N       1.369276    1.968040   -0.011537
H      -0.456789    1.777670   -0.949792
H      -1.960243    1.729144    0.913165
H      -0.667051    1.513877    2.091386
H      -1.056026    3.895258    0.430780
H       0.659592    4.890482    1.605464
H       0.708493    3.537469    2.726071
H       2.345710    3.842777    0.320972
H       3.226757    1.530533    0.990324
H       1.758911    1.326245    2.060099
