21

O       0.136246    0.330486    1.088470
C      -0.196005    0.087399   -0.276555
C      -1.534759   -0.595332   -0.311684
C      -1.852487   -1.605688   -1.396904
C      -1.623971   -2.059914    0.011597
C      -0.495246   -2.997762    0.500818
C      -1.509043   -3.643471    1.459271
C      -2.125514   -2.604350    2.355337
C      -2.620945   -2.729202    0.938014
H       0.953254    0.838035    1.112811
H      -0.231388    1.030473   -0.844692
H       0.558842   -0.555275   -0.757374
H      -2.359898    0.022230    0.034603
H      -2.863548   -1.624310   -1.791671
H      -1.085417   -1.823824   -2.135244
H      -0.156431   -3.681734   -0.282660
H       0.373548   -2.522814    0.967938
H      -1.559560   -4.700060    1.691210
H      -2.793726   -2.988630    3.119849
H      -1.554539   -1.725839    2.646822
H      -3.649965   -2.968419    0.695735
