20

C      -0.030030    1.575844    0.160650
C       1.528298    1.454021   -0.155353
C       1.118354    0.132361   -0.831494
C      -0.128945    0.009075    0.009877
C      -0.304672   -0.929459   -1.207919
C       0.282505    0.121902   -2.164179
C       1.107498   -0.584869   -3.231315
C       1.735021   -1.683384   -2.330101
N       1.200162   -1.391834   -0.979185
H      -0.285516    1.950544    1.153444
H      -0.564356    2.163704   -0.586409
H       2.000886    2.229361   -0.765135
H       2.101717    1.305885    0.763785
H       0.012769   -0.506140    0.960926
H      -1.056330   -1.699490   -1.416010
H      -0.308765    0.988915   -2.461727
H       0.486774   -0.994580   -4.034781
H       1.850413    0.075801   -3.690290
H       1.444007   -2.696653   -2.622819
H       2.827692   -1.644738   -2.297772
