16

O      -0.082160    1.417538   -0.037675
C      -0.130645    0.023365    0.007409
C      -0.471162   -0.779273    1.237895
C      -1.563456   -0.073623    2.027920
O      -1.129118    1.178537    2.558237
C      -2.496108   -0.055961    0.768999
C      -1.393626   -0.782171   -0.008109
O      -1.622830   -1.839492   -0.868699
H      -0.283206    1.734299    0.854353
H       0.661683   -0.431885   -0.584686
H       0.190332   -1.540561    1.632952
H      -1.974011   -0.699420    2.828323
H      -1.892133    1.633973    2.929555
H      -3.387776   -0.670746    0.905997
H      -2.775349    0.932957    0.392502
H      -1.625137   -1.499833   -1.770445
