19

C       0.195572    1.482880    0.087117
C       0.031693   -0.004599   -0.028667
C      -0.076790   -0.672060   -1.178037
C      -0.125278   -2.177164   -1.228573
O       0.532233   -2.774044   -0.120943
C       0.070785   -2.314997    1.126329
C       1.222095   -2.162070    2.132828
O       1.145762   -0.719466    2.080896
C      -0.046457   -0.780405    1.250023
H       1.112193    1.720552    0.639179
H       0.248215    1.959531   -0.895310
H      -0.634560    1.932854    0.646652
H      -0.098290   -0.143857   -2.128517
H      -1.165805   -2.541009   -1.306007
H       0.403225   -2.542403   -2.115175
H      -0.806370   -2.888026    1.455947
H       1.016583   -2.545572    3.139861
H       2.182524   -2.544956    1.773609
H      -0.922993   -0.459246    1.833924
