17

O      -0.066377    1.396815   -0.005336
C       0.008706   -0.013659    0.021164
C       0.642650   -0.599512    1.318820
C      -0.021823   -1.978703    1.517901
C      -1.400935   -1.804692    0.901758
N      -2.047553   -0.545102    1.323272
C      -1.390994   -0.622680    0.007410
C       0.742186   -0.501706   -1.172598
N       1.336327   -0.866613   -2.094668
H       0.828898    1.752332    0.031514
H       1.731991   -0.650072    1.262444
H       0.360192    0.080848    2.123869
H       0.520953   -2.760337    0.975141
H      -0.060018   -2.267603    2.572306
H      -2.016811   -2.670840    0.684604
H      -3.053200   -0.609683    1.189285
H      -1.977690   -0.556878   -0.901401
