19

C       0.510737    1.606292   -0.301442
C       0.046421    0.171238   -0.122106
C       0.798148   -0.948756   -0.904500
C       1.073974   -1.604666    0.462161
C       2.409057   -1.199016    1.164425
C       1.552998   -0.127594    1.922194
N       0.315133   -0.523593    1.195684
C       3.057456   -2.210591    1.979209
N       3.555257   -3.021806    2.636260
H       1.599979    1.708088   -0.255757
H       0.191051    1.972239   -1.282696
H       0.071566    2.261817    0.458258
H      -1.033590    0.131738   -0.298065
H       0.177644   -1.539777   -1.580840
H       1.689701   -0.621695   -1.448374
H       0.756836   -2.639226    0.610501
H       3.142507   -0.774813    0.472997
H       1.461599   -0.331183    2.991973
H       1.876580    0.907234    1.791047
