20

C       0.471156    1.349955   -0.967675
C       0.031378    0.098314   -0.236222
N       1.007957   -1.004170   -0.279282
C       0.752703   -0.315723    1.014467
C       1.818649    0.456151    1.592690
C       2.687575    1.105634    2.111537
C      -1.431413   -0.213793   -0.397130
C      -2.221429   -1.110504    0.523645
C      -2.474932    0.376563    0.519385
H       1.541137    1.519197   -0.839638
H       0.263599    1.251721   -2.038882
H      -0.071049    2.225151   -0.595460
H       0.512076   -1.894094   -0.263686
H       0.171828   -0.866350    1.749892
H       3.462185    1.676108    2.560809
H      -1.719947   -0.271599   -1.444935
H      -2.961288   -1.761164    0.070863
H      -1.742169   -1.539550    1.396605
H      -2.120394    0.941757    1.374751
H      -3.397903    0.748114    0.088446
