20

C       0.098454    1.491052   -0.080122
C      -0.054230   -0.024279    0.028834
C      -1.529811   -0.438554    0.104315
O       0.476467   -0.543661   -1.228084
C       0.948511   -1.813114   -1.255968
N       1.361548   -2.528416   -0.296861
C       1.370820   -1.936462    1.006935
C       2.206347   -0.688066    1.224838
C       0.704381   -0.598475    1.214614
H       1.152844    1.765596   -0.164218
H      -0.430465    1.866515   -0.960853
H      -0.315302    1.977638    0.808461
H      -2.069583   -0.080447   -0.776566
H      -1.621578   -1.527319    0.152455
H      -2.003471   -0.015908    0.995733
H       0.969994   -2.187326   -2.277841
H       1.346826   -2.666610    1.808342
H       2.718551   -0.570761    2.173416
H       2.754675   -0.317407    0.365158
H       0.214641   -0.420909    2.167771
