25

C       2.726284    2.277590   -0.634878
C       1.401995    1.504804   -0.596232
C       1.389620    0.298299   -1.514397
C       1.922263   -1.067070   -1.107658
C       2.523585   -1.353045    0.251582
C       0.441858   -0.849318   -1.300358
C      -0.645863   -1.006259   -0.222746
C      -1.390287   -1.984678   -1.179031
C      -0.441891   -1.557639   -2.337822
H       3.560709    1.649012   -0.307514
H       2.951782    2.620520   -1.650816
H       2.692568    3.158687    0.014123
H       1.185260    1.199916    0.433586
H       0.582123    2.177073   -0.883816
H       1.564630    0.555644   -2.559083
H       2.403330   -1.618455   -1.914169
H       2.028473   -0.795208    1.050911
H       2.440672   -2.417736    0.499608
H       3.587477   -1.091916    0.277889
H      -0.335992   -1.413579    0.743654
H      -1.204398   -0.082288   -0.039600
H      -1.254227   -3.030315   -0.891965
H      -2.457175   -1.804586   -1.328265
H      -0.915969   -0.862985   -3.039734
H       0.023774   -2.363106   -2.913947
