17

N      -0.002927    1.456769   -0.070938
C      -0.036916    0.053848   -0.078285
C      -1.096158   -0.842626   -0.074836
C      -0.562594   -2.172573   -0.227646
O      -1.269283   -3.336000   -0.346968
C       0.799367   -2.049355   -0.216604
C       2.166776   -2.391345   -0.781967
C       2.400721   -0.838363   -0.807419
N       1.104111   -0.688952   -0.101447
H       0.594943    1.826807    0.660173
H      -0.930087    1.847026    0.039467
H      -2.132393   -0.590846    0.107014
H      -2.202305   -3.114813   -0.414722
H       2.844468   -2.943182   -0.123687
H       2.171841   -2.862116   -1.768115
H       3.257307   -0.450816   -0.249720
H       2.387101   -0.407060   -1.812164
