14

O      -0.019440    0.027318    0.199898
C       0.014945    1.202966   -0.012469
O      -1.140986    1.925027   -0.330697
C      -0.770127    3.262104   -0.569024
C      -0.909643    4.449906    0.458813
C       0.603739    4.800920    0.172596
C       0.687059    3.363151   -0.279470
C       1.149204    2.168402    0.089464
H      -1.105735    3.564616   -1.565485
H      -1.654918    5.211659    0.224305
H      -1.043735    4.077081    1.474909
H       0.702813    5.528737   -0.637017
H       1.232445    5.099186    1.011608
H       2.084676    1.886763    0.549735
