25

C       0.689432   -0.469814    1.475015
C       0.042153   -0.170965    0.117812
C      -1.407256   -0.647705   -0.028283
C      -2.340433    0.017433    0.980088
O      -2.285568    1.425016    0.786318
C      -1.992167   -0.576186   -1.473659
C      -2.538273   -2.023961   -1.318265
C      -2.349324   -2.996007   -2.473435
C      -1.639818   -2.192043   -0.058791
H       1.749088   -0.195826    1.467066
H       0.214647    0.093831    2.284180
H       0.626011   -1.534829    1.726171
H       0.075356    0.907436   -0.073729
H       0.634837   -0.647335   -0.673595
H      -3.365819   -0.358722    0.835414
H      -2.037445   -0.254717    2.003473
H      -2.885130    1.840009    1.412724
H      -2.711343    0.223455   -1.666315
H      -1.201031   -0.517788   -2.228578
H      -3.594832   -2.004880   -1.030243
H      -1.298823   -3.034912   -2.784564
H      -2.651691   -4.012266   -2.195487
H      -2.942833   -2.698896   -3.345645
H      -0.715674   -2.734955   -0.284443
H      -2.095401   -2.648611    0.825998
