25

C      -0.102359    1.576177   -0.092034
C       0.080692    0.067704   -0.004904
C       1.134428   -0.628795   -0.905358
C       1.414913   -1.618034    0.252473
C       2.827428   -2.121201    0.472553
O       3.143596   -2.987299   -0.611648
C       0.757680   -0.599706    1.250414
C       1.772614    0.315796    1.944905
C      -0.197128   -1.199646    2.279863
H       0.845153    2.110588    0.030395
H      -0.512982    1.857047   -1.068518
H      -0.795512    1.944811    0.673001
H      -0.891797   -0.416496   -0.157466
H       0.799657   -1.043337   -1.858460
H       1.996229    0.020619   -1.097173
H       0.763450   -2.494080    0.154053
H       3.533537   -1.277724    0.518143
H       2.891957   -2.654409    1.436380
H       4.054632   -3.277018   -0.507828
H       2.474265    0.776902    1.243518
H       1.261346    1.125310    2.477258
H       2.359824   -0.240508    2.684095
H       0.342802   -1.788658    3.031214
H      -0.748084   -0.415434    2.813301
H      -0.930582   -1.858652    1.803321
