19

C      -0.299251    1.526543   -0.067272
C       0.113863    0.058667   -0.024041
N       1.026473   -0.276392   -1.140095
C       1.922359   -1.048712   -0.676215
N       1.861754   -1.315006    0.694539
C       2.674529   -2.195895    1.360513
O       3.537390   -2.865675    0.838803
C       0.832700   -0.433271    1.284469
C       1.471858    0.654498    2.150586
H       0.562221    2.193258    0.024247
H      -0.779096    1.733558   -1.026889
H      -1.010512    1.763908    0.730007
H      -0.789252   -0.549330   -0.170782
H       2.716533   -1.509804   -1.250235
H       2.444580   -2.236084    2.442348
H       0.146928   -1.028232    1.894637
H       2.181804    1.253748    1.573658
H       0.709617    1.321330    2.562618
H       2.012065    0.206063    2.990092
