20

C      -0.223607    1.531720   -0.011658
C       0.039373    0.038465   -0.023666
N       1.000352   -0.496593   -1.064130
C       2.333873    0.038278   -0.736479
C       1.832310   -1.092809    0.063560
C       0.872083   -0.613875    1.140070
O       1.462856    0.252539    2.084190
C       0.142589   -1.735255    1.863322
O      -0.804610   -1.100723    2.720276
H       0.658646    2.108977    0.272528
H      -0.559449    1.863640   -0.999591
H      -1.012891    1.762405    0.711305
H      -0.903671   -0.496605   -0.165978
H       3.068908   -0.188996   -1.502488
H       2.441149    1.016365   -0.279841
H       2.250887   -2.092890    0.000416
H       0.809660    0.355875    2.789379
H      -0.347741   -2.404488    1.142521
H       0.870044   -2.320792    2.445254
H      -1.165683   -1.755847    3.323710
