21

C      -0.067309    1.550309   -0.008240
C       0.091504    0.032269    0.003943
C       1.028843   -0.618360   -1.043533
C       2.409362    0.015119   -0.736786
C       2.320023   -0.772733    0.583358
C       3.463978   -1.039156    1.525758
C       1.489156   -1.862945   -0.136354
O       0.587208   -2.020611    0.962398
C       0.855582   -0.601494    1.188124
H       0.871908    2.081743    0.165774
H      -0.471288    1.895181   -0.965999
H      -0.766209    1.862788    0.775256
H      -0.898433   -0.433019   -0.031261
H       0.663996   -0.736473   -2.062827
H       3.200732   -0.407616   -1.364989
H       2.505970    1.102809   -0.730770
H       3.756744   -0.130550    2.064936
H       3.182468   -1.794098    2.267392
H       4.345808   -1.403646    0.987682
H       1.858336   -2.782424   -0.590310
H       0.662965   -0.273191    2.210308
