19

C       0.542653    1.576249   -0.676637
O       0.852236    0.243883   -0.337673
C      -0.129555   -0.678627   -0.766461
C       0.340503   -2.092647   -0.480684
N       1.699660   -2.264651   -0.562568
N      -0.561302   -2.979790   -0.287550
C      -0.135985   -4.373739   -0.162684
C       0.724122   -4.665346    0.990968
C       1.446607   -4.877062    1.929977
H       0.445701    1.705638   -1.765805
H      -0.395294    1.906220   -0.205503
H       1.360260    2.203908   -0.314744
H      -1.089016   -0.523168   -0.257941
H      -0.302428   -0.571241   -1.851117
H       2.228978   -1.408658   -0.477830
H       2.088951   -3.057973   -0.073518
H      -1.037613   -4.991505   -0.086175
H       0.388142   -4.704522   -1.074972
H       2.060715   -5.077690    2.772861
