19

O       0.020554    1.383556   -0.271082
C       0.061552   -0.004793    0.025159
C      -1.362030   -0.517803    0.041162
C      -2.133512   -0.577392   -1.303564
C      -2.715552   -1.957287   -0.884688
O      -2.672130   -2.901446   -1.938889
C      -1.581298   -2.045592    0.196361
C      -4.048156   -1.882103   -0.293676
C      -5.146426   -1.862385    0.196578
H       0.923737    1.710717   -0.313812
H       0.641342   -0.558226   -0.732604
H       0.536343   -0.192901    1.002778
H      -1.934314    0.038751    0.788939
H      -2.842132    0.217015   -1.536914
H      -1.457725   -0.726766   -2.150609
H      -3.190293   -3.669343   -1.674220
H      -0.748876   -2.620637   -0.220690
H      -1.846064   -2.437000    1.180115
H      -6.118824   -1.830799    0.622719
