18

C       0.068165    1.724788    0.354594
C      -0.049239    0.561684    1.335964
C       0.913039   -0.567713    1.032747
O       1.701849   -0.537647    0.113245
C       0.913045   -1.778262    1.934627
N       0.166610   -1.742014    3.193813
C      -0.292211   -2.668250    2.148592
C      -1.579502   -2.450592    1.548004
C      -2.659874   -2.329214    1.034788
H      -0.144488    1.398456   -0.666838
H      -0.634635    2.520383    0.617135
H       1.079024    2.140839    0.356700
H       0.133149    0.877015    2.371399
H      -1.064963    0.148019    1.353389
H       1.860249   -2.311803    1.890223
H       0.661503   -2.248983    3.922605
H      -0.040772   -3.720518    2.270370
H      -3.614358   -2.210232    0.584179
