17

O      -0.058459    1.446322   -0.117450
C       0.061798    0.054508    0.005515
C       0.039347   -0.592620    1.439052
C      -1.451145   -0.142301    1.521159
C      -1.286538   -0.711573    0.076357
C      -0.503370   -1.864421    0.751050
O       0.408056   -2.601136   -0.057918
C       0.375483   -3.944968   -0.001833
O       1.101705   -4.637286   -0.649029
H       0.825595    1.823840   -0.140683
H       0.806070   -0.350744   -0.684052
H       0.799901   -0.541402    2.218502
H      -2.098579   -0.702441    2.201077
H      -1.615849    0.929743    1.586015
H      -2.044476   -0.794131   -0.702140
H      -1.090761   -2.542279    1.377644
H      -0.388525   -4.327102    0.703118
