25

C       0.001232    1.511286   -0.137542
C       0.037703   -0.017012    0.006539
C       0.837670   -0.436383    1.247443
C      -1.377371   -0.593655    0.042385
C      -2.288096   -0.483048   -1.221310
C      -2.726196   -1.966095   -1.040164
C      -1.986127   -2.976368   -1.945724
C      -0.797318   -2.999436   -0.936828
C      -1.619872   -2.129189    0.063868
H       1.012126    1.926220   -0.210726
H      -0.551845    1.818013   -1.031211
H      -0.485128    1.973776    0.729931
H       0.549784   -0.419641   -0.879070
H       0.895197   -1.525805    1.338935
H       1.861177   -0.048467    1.209785
H       0.370744   -0.049872    2.161663
H      -1.903533   -0.155859    0.901343
H      -3.087111    0.259684   -1.161257
H      -1.736909   -0.308514   -2.152466
H      -3.787882   -2.129448   -0.849140
H      -2.496257   -3.941851   -2.007363
H      -1.767077   -2.641853   -2.964850
H      -0.545636   -3.993752   -0.560554
H       0.126042   -2.540495   -1.299467
H      -1.808848   -2.589031    1.035454
