16

N      -0.073954    1.372596   -0.269878
C       0.072922    0.064312    0.090159
O       1.142529   -0.412352    0.407267
C      -1.244047   -0.735493    0.122724
C      -1.031492   -2.256026    0.062449
C      -1.758642   -2.826359    1.288584
O      -1.914182   -3.995821    1.545293
C      -2.232597   -1.664925    2.084133
C      -1.961781   -0.523246    1.446464
H       0.756403    1.938682   -0.340197
H      -0.926425    1.724896   -0.668730
H      -1.883688   -0.379210   -0.696046
H      -1.408137   -2.716986   -0.853279
H       0.034802   -2.485723    0.145774
H      -2.738577   -1.777060    3.034256
H      -2.204201    0.472846    1.801313
