21

C       0.035603    1.362418    0.061836
O       0.030917   -0.045472    0.019982
C       0.605703   -0.564728   -1.154462
C       0.562040   -2.092109   -1.072913
C       1.153438   -2.710107   -2.341681
O       1.068625   -4.109923   -2.229210
C       1.605674   -4.787256   -3.341293
C       1.356781   -2.559397    0.138169
O       0.916540   -3.183582    1.062948
H       1.058478    1.768893    0.021365
H      -0.539813    1.796510   -0.770946
H      -0.426913    1.660735    1.005159
H       0.059718   -0.216969   -2.047831
H       1.649827   -0.217357   -1.260428
H      -0.471658   -2.425699   -0.946999
H       0.604758   -2.351827   -3.229223
H       2.205809   -2.395039   -2.465532
H       1.074976   -4.528395   -4.271032
H       2.674315   -4.560049   -3.480989
H       1.492569   -5.857483   -3.155294
H       2.434353   -2.262194    0.098097
