23

C       0.042595    1.253907   -0.225563
O      -0.054022   -0.084191    0.195491
C      -1.292551   -0.674377   -0.131433
C      -1.285210   -2.114379    0.362776
C      -2.584476   -2.843096    0.049530
O      -2.484581   -4.162694    0.556389
C      -3.625615   -4.927027    0.331980
C      -3.791032   -5.637432   -0.988985
C      -3.432216   -6.405893    0.269375
H       1.028966    1.620532    0.069280
H      -0.058970    1.348289   -1.318865
H      -0.726669    1.888535    0.243545
H      -2.120502   -0.108887    0.332525
H      -1.456483   -0.639345   -1.223444
H      -0.448925   -2.650008   -0.098588
H      -1.115644   -2.125001    1.444459
H      -3.441449   -2.324111    0.512083
H      -2.770134   -2.865919   -1.036506
H      -4.524980   -4.542518    0.816361
H      -4.786388   -5.747315   -1.405347
H      -3.001960   -5.500436   -1.719972
H      -2.411410   -6.759828    0.355717
H      -4.178579   -7.046272    0.725365
