16

O       0.000913   -0.010785   -0.315707
C       0.027446    1.158273   -0.070076
O      -1.107348    1.864744    0.231225
C      -0.817335    3.237367    0.507416
C      -0.359183    3.521182    1.958898
N       1.078625    3.653028    1.542436
C       1.757921    2.318123    1.447463
C       1.232763    2.083968   -0.007430
C       0.651046    3.501813    0.091473
H      -1.626877    3.839870    0.096193
H      -0.730254    4.473106    2.349408
H      -0.567808    2.729349    2.684542
H       2.843374    2.438974    1.482830
H       1.460251    1.587474    2.205865
H       1.970400    1.827854   -0.765109
H       0.902814    4.282104   -0.626211
