23

C       0.724672    1.641132   -1.133144
O       0.063647    0.493180   -0.653212
C       0.648772   -0.745245   -1.043998
C       1.937110   -1.032847   -0.265751
C      -0.394590   -1.844284   -0.814389
C      -1.645781   -1.751060   -1.676579
C      -2.720089   -0.779092   -1.245389
C      -1.562879   -2.177125   -3.083381
O      -2.151933   -3.031699   -2.103076
H       1.722672    1.772778   -0.691358
H       0.833616    1.618893   -2.228936
H       0.111172    2.503068   -0.858877
H       0.883769   -0.699207   -2.121638
H       2.371825   -1.985811   -0.582712
H       2.689583   -0.256477   -0.428979
H       1.727792   -1.086851    0.807365
H       0.073045   -2.812578   -1.018768
H      -0.676295   -1.839593    0.246076
H      -2.315933    0.233136   -1.184981
H      -3.562468   -0.801110   -1.941446
H      -3.092242   -1.050116   -0.250902
H      -2.251499   -1.757918   -3.816554
H      -0.613842   -2.522688   -3.494401
