16

O       0.265462    1.375516   -0.232106
C       0.112114    0.030924   -0.050613
C      -0.189026   -0.851792   -1.063791
N      -0.285806   -2.101797   -0.490266
C      -0.026455   -2.029247    0.848087
C       0.221962   -0.705754    1.161314
C      -0.077127   -3.238618    1.686394
C      -1.234948   -4.155200    1.692759
O      -0.044248   -4.486060    0.973413
H       0.496797    1.771017    0.612666
H      -0.330091   -0.690709   -2.118570
H      -0.367636   -2.977568   -0.978486
H       0.435842   -0.312284    2.144441
H       0.543344   -3.210831    2.581497
H      -1.434925   -4.770834    2.568939
H      -2.100616   -3.913647    1.078558
