21

C      -0.190941    1.347770    0.247593
O      -0.162682   -0.062170    0.376942
C      -1.287794   -0.696622   -0.169566
C      -1.099177   -2.215604   -0.019281
C      -2.238757   -2.669142    0.921250
C      -3.415706   -3.276836    0.155642
O      -1.705311   -3.597422    1.857336
C      -2.628179   -1.323064    1.572722
O      -2.481191   -0.366981    0.529792
H       0.732066    1.727848    0.690681
H      -0.230460    1.650675   -0.810210
H      -1.052129    1.782424    0.767827
H      -1.442927   -0.351940   -1.201924
H      -1.126006   -2.727872   -0.983139
H      -0.137585   -2.414317    0.455989
H      -3.097697   -4.165979   -0.396578
H      -4.220499   -3.566637    0.843179
H      -3.830113   -2.551893   -0.551457
H      -2.438812   -3.975810    2.353376
H      -3.662895   -1.278535    1.924730
H      -1.948197   -1.118770    2.410850
