18

C      -0.201397    1.524816    0.025676
N       0.103730    0.097393    0.102182
C       1.353844   -0.484301   -0.274709
C       2.606967    0.286104    0.170066
O       2.841281    1.470512   -0.557762
C       2.058760    0.361890    1.634647
C       0.857547   -0.482176    1.190608
C       0.300769   -1.643973    1.908233
O       0.708931   -2.039746    2.974176
H       0.635961    2.186772    0.263645
H      -0.524766    1.743040   -0.995901
H      -1.036541    1.731899    0.701188
H       1.349406   -1.300196   -0.990666
H       3.477081   -0.382610    0.129877
H       3.664588    1.859681   -0.245170
H       2.684333   -0.160323    2.359411
H       1.822429    1.360439    2.008944
H      -0.532838   -2.140803    1.366331
