19

C      -0.133396    1.539162   -0.014767
C      -0.003642    0.009940   -0.008464
N      -1.267129   -0.713305    0.037860
C      -2.050475   -0.786843   -1.185702
C      -1.948727   -0.804938    1.225290
N      -3.242995   -1.083707    1.247351
O      -3.583242   -1.174603    2.606993
C      -2.495300   -0.925979    3.339340
C      -1.420776   -0.677410    2.555065
H       0.855869    2.006415   -0.057863
H      -0.706468    1.884021   -0.880798
H      -0.639249    1.892650    0.888880
H       0.525027   -0.321466   -0.909137
H       0.610855   -0.309930    0.839146
H      -1.372015   -0.930947   -2.030860
H      -2.734687   -1.635670   -1.126415
H      -2.655219    0.113817   -1.364864
H      -2.628250   -0.961241    4.410328
H      -0.416882   -0.449919    2.868200
