18

N      -0.117355    1.315603    0.014573
C      -0.049060    0.061737   -0.093250
O      -1.105113   -0.702479    0.257894
C      -0.983046   -2.117021    0.153358
C      -1.041722   -2.740739    1.553277
O      -1.117161   -4.153483    1.446574
C      -2.224155   -4.546363    0.677172
O      -2.160307   -4.069659   -0.641869
C      -2.155772   -2.651549   -0.676404
H       0.754053    1.739577   -0.296122
H       0.806786   -0.521598   -0.460615
H      -0.038464   -2.394239   -0.330650
H      -0.146712   -2.504830    2.134345
H      -1.918558   -2.336342    2.084433
H      -2.206898   -5.636018    0.624967
H      -3.157248   -4.194415    1.157412
H      -3.094432   -2.242878   -0.268584
H      -2.073605   -2.350146   -1.723313
