19

C      -0.005488    1.428790   -0.162311
C       0.062822   -0.057919    0.089593
O       0.202734   -0.582450    1.163550
O      -0.056997   -0.738496   -1.078629
C      -0.012729   -2.143821   -1.016841
C      -0.993197   -3.104448   -0.291951
C       0.030430   -3.991105   -1.063167
C      -0.136616   -3.022768   -2.275645
C       1.157029   -3.047927   -0.543740
H       0.093425    1.961995    0.782296
H       0.791542    1.729514   -0.848182
H      -0.956366    1.684177   -0.638644
H      -0.941722   -3.118486    0.796627
H      -2.022163   -3.117167   -0.660950
H       0.054836   -5.076934   -1.098163
H      -1.107768   -3.026274   -2.776920
H       0.691845   -2.978948   -2.987118
H       2.072232   -3.009509   -1.140431
H       1.359076   -3.057994    0.527181
