16

O       0.030403    0.010778   -0.038694
C      -0.011181    1.198086    0.048003
C      -1.106583    2.292166    0.039933
C      -0.742808    3.052282    1.313539
C      -0.019230    4.306196    0.974591
C      -0.105900    4.533369   -0.516022
C      -0.111414    3.063063   -0.918558
C       0.988371    2.371371   -0.034246
N       0.769827    3.076618    1.262652
H      -2.149569    2.096784   -0.194859
H      -1.208776    2.849383    2.269526
H       0.097969    5.112246    1.688915
H      -1.020218    5.059807   -0.806978
H       0.757633    5.073051   -0.917421
H      -0.147796    2.792903   -1.970915
H       2.032355    2.266025   -0.317477
