18

C      -0.014494    1.490319    0.097532
C       0.048456   -0.006007    0.099954
C       1.211703   -0.857657   -0.315440
C       0.647075   -0.987579    1.105251
C       1.426684   -0.878589    2.383673
O       1.957240   -2.139519    2.760723
C      -0.650371   -1.758766    0.970291
O      -1.084357   -2.779393    1.434789
N      -1.194802   -0.806908    0.091639
H       0.966910    1.917847    0.321968
H      -0.321316    1.867944   -0.884661
H      -0.733736    1.851231    0.838495
H       1.081365   -1.660454   -1.035914
H       2.180934   -0.366334   -0.359534
H       2.280192   -0.202127    2.268310
H       0.784434   -0.465267    3.177311
H       1.216887   -2.757868    2.792400
H      -1.702945   -1.054820   -0.751282
