18

N       0.041598   -1.148212   -0.040128
C       0.002776   -0.002348    0.105550
C      -0.017965    1.449770    0.279687
C       1.378096    2.065423    0.088596
C       1.975354    2.141500   -1.369468
C       1.087298    3.417928   -1.571009
C       1.466758    3.633175   -0.064761
C       2.989494    3.779081   -0.193822
C       3.321072    2.804738   -1.046847
H      -0.755295    1.867863   -0.411545
H      -0.377558    1.670218    1.292144
H       2.057893    1.640966    0.831218
H       1.952976    1.291335   -2.050009
H       1.450372    4.163610   -2.280390
H       0.028796    3.213074   -1.751996
H       0.924448    4.315122    0.590520
H       3.607162    4.506205    0.313243
H       4.286788    2.511163   -1.432132
