17

C       0.003317    1.617228   -0.033954
C       0.015327    0.086064   -0.060066
O       0.734281   -0.463723   -1.154347
C       2.062556   -0.810410   -0.740881
C       1.929175   -1.270111    0.708993
C       0.737421   -0.456290    1.207464
O       0.413476   -0.237154    2.340143
C      -1.401315   -0.484995   -0.123659
O      -2.371657    0.059725    0.325717
H       1.016821    2.017004    0.059700
H      -0.442478    2.000032   -0.954946
H      -0.592088    1.952428    0.817235
H       2.422206   -1.582821   -1.423235
H       2.730021    0.059653   -0.820414
H       1.657183   -2.331247    0.767120
H       2.807051   -1.107905    1.336331
H      -1.442986   -1.471373   -0.634603
