23

C       0.032435    1.563933   -0.252675
C       1.444731    1.638656    0.421002
C       1.442132    0.092005    0.590944
C       0.838369   -0.443020    1.920696
C      -0.572087   -0.517650    1.247891
C       0.035311    0.017570   -0.080125
C       0.151408   -0.929271   -1.274329
C       1.404389   -1.784366   -0.936091
C       2.376944   -0.811522   -0.212720
H      -0.767566    2.090740    0.275803
H       0.019573    1.892766   -1.295765
H       2.233318    2.009888   -0.239794
H       1.490096    2.210196    1.352721
H       1.234499   -1.415813    2.227296
H       0.919860    0.237381    2.773488
H      -0.973962   -1.532666    1.173831
H      -1.342855    0.117656    1.694146
H      -0.738164   -1.545218   -1.445085
H       0.330629   -0.358711   -2.194059
H       1.121940   -2.596059   -0.253941
H       1.849845   -2.255286   -1.817703
H       2.928934   -0.221241   -0.954635
H       3.118811   -1.341153    0.394744
