16

C      -0.506245    1.289827    0.005549
C       0.135105   -0.085018    0.107158
C       0.963506   -0.670215   -1.098220
C       2.051429   -1.175103   -0.093183
C       1.405095   -0.259778    0.957587
O       1.789143    0.245843    1.969778
C       0.268639   -1.730986   -1.902242
O       0.091350   -1.703863   -3.091773
H       0.221356    2.039186   -0.320573
H      -1.336993    1.287520   -0.706275
H      -0.891412    1.599824    0.981199
H      -0.600810   -0.834677    0.434022
H       1.333440    0.115530   -1.759419
H       1.919225   -2.233121    0.164965
H       3.100601   -1.000105   -0.337938
H      -0.097045   -2.588002   -1.283405
