18

C      -0.149784    1.396133    0.014538
N      -0.112998   -0.053969   -0.047506
C       0.581630   -0.613042   -0.975789
C       1.370236    0.044176   -2.017873
C       2.049715   -0.670863   -2.927136
O       2.068567   -2.020531   -2.963987
C       1.346248   -2.678389   -2.009899
C       0.625686   -2.080613   -1.047164
C      -0.140489   -2.880031   -0.036244
H       0.845970    1.840009    0.168936
H      -0.570822    1.849570   -0.896237
H      -0.779144    1.702878    0.854381
H       1.419607    1.123403   -2.073978
H       2.651377   -0.249132   -3.722985
H       1.433188   -3.750108   -2.134761
H      -0.022742   -3.954805   -0.199181
H       0.191894   -2.630757    0.976258
H      -1.203906   -2.624324   -0.076309
