19

C       0.361509    1.435840   -0.308355
C      -0.106861    0.053179    0.089247
C      -1.582402   -0.220152   -0.157974
C      -2.150002   -1.449073    0.519138
O      -1.550334   -2.712721    0.226401
C      -1.405531   -2.187874    1.548096
C      -0.020260   -1.764512    1.983502
C       0.628601   -0.710431    1.112504
O       0.790643   -1.005976   -0.277914
H       1.440021    1.530348   -0.160561
H       0.145121    1.625117   -1.365877
H      -0.143599    2.209056    0.280631
H      -2.158421    0.648447    0.187637
H      -1.753303   -0.290095   -1.240597
H      -3.240618   -1.478888    0.551883
H      -1.972510   -2.734380    2.303710
H      -0.086550   -1.371460    3.006923
H       0.632516   -2.645873    2.032934
H       1.502800   -0.236133    1.563952
