23

C      -0.122861    1.541465   -0.150764
C       0.012319    0.019435   -0.047284
C       0.778551   -0.459845    1.197651
C       0.784773   -2.001844    1.364421
C       2.182517   -2.394287    1.902479
C       2.188108   -2.701002    3.406305
O       2.611026   -3.552261    1.174056
C       3.007140   -1.163271    1.575609
C       2.256423   -0.129237    1.207016
H       0.853254    2.032502   -0.222231
H      -0.698349    1.826936   -1.036837
H      -0.636356    1.953216    0.725573
H      -0.988838   -0.430419   -0.031501
H       0.510841   -0.373551   -0.942790
H       0.303118    0.009031    2.073932
H      -0.025941   -2.364470    2.002106
H       0.674839   -2.477407    0.385155
H       1.592542   -3.596832    3.608828
H       3.208957   -2.877637    3.768018
H       1.776122   -1.866205    3.981852
H       3.440514   -3.854078    1.559710
H       4.088259   -1.158897    1.679305
H       2.634893    0.857463    0.960620
