18

C       0.025085    1.595736    0.002685
C       0.097783    0.075775    0.001122
C       0.771216   -0.707714   -1.125487
C       1.237773   -1.767288   -0.207601
N       2.244730   -0.882024   -0.845881
C       2.474412   -0.209835    0.469296
C       1.086327   -0.689252    0.956300
C       0.768370   -0.894679    2.337013
C       0.504970   -1.066503    3.498852
H       0.988047    2.062693   -0.219004
H      -0.687609    1.941536   -0.753779
H      -0.318298    1.964855    0.975089
H      -0.899860   -0.347839    0.157798
H       0.476406   -0.786402   -2.163710
H       1.243824   -2.848677   -0.233776
H       3.289613   -0.724970    0.981802
H       2.676043    0.865222    0.434447
H       0.272429   -1.217974    4.523777
