25

C       0.027051    1.568241   -0.022980
C       0.028491    0.042788    0.083481
O       0.669478   -0.386216    1.285017
C      -1.378611   -0.554424   -0.050049
C      -1.399547   -2.086709   -0.018807
C      -2.800148   -2.677196   -0.097237
C      -3.613075   -2.556106   -1.421102
C      -4.137675   -3.998164   -1.187013
C      -2.963425   -4.221034   -0.196705
H       1.041471    1.958989    0.094350
H      -0.364854    1.899290   -0.990285
H      -0.602693    2.011216    0.759337
H       0.660307   -0.368206   -0.714722
H       0.175306   -0.013430    2.024027
H      -2.005621   -0.158068    0.764020
H      -1.829663   -0.191506   -0.982974
H      -0.799771   -2.472970   -0.855574
H      -0.900324   -2.428287    0.895712
H      -3.406311   -2.299268    0.736370
H      -4.347335   -1.750768   -1.505357
H      -2.945301   -2.507921   -2.288668
H      -5.104406   -3.998531   -0.674838
H      -4.206784   -4.661047   -2.052815
H      -2.099392   -4.676024   -0.692905
H      -3.163861   -4.775300    0.723909
