19

C      -0.115927    1.570685    0.069934
C      -0.018169    0.039149    0.028326
C       1.141092   -0.487978   -0.893662
C       2.008401   -0.776649    0.365438
C       0.762317   -0.575320    1.231311
C       0.574435   -0.283723    2.666981
N       0.261080   -1.616319    2.113109
C      -1.327460   -0.561195   -0.191860
N      -2.364277   -1.059418   -0.317317
H       0.871609    1.999788    0.261347
H      -0.484094    1.961304   -0.883273
H      -0.793811    1.903133    0.860730
H       0.861814   -1.394037   -1.432561
H       1.521511    0.248137   -1.604068
H       2.450253   -1.771861    0.430234
H       2.786571   -0.028325    0.537825
H       1.431753   -0.253869    3.334693
H      -0.246169    0.370229    2.953756
H      -0.744961   -1.734998    2.001727
