23

O      -0.072905    1.458351    0.094525
C      -0.030931    0.060685    0.031989
C      -0.613464   -0.754564    1.160761
C      -1.336093   -0.651721   -0.171778
C      -2.638605    0.113416   -0.280552
C      -3.857511   -0.714042    0.153660
C      -5.161601    0.046274    0.036131
C      -5.902520    0.095605   -1.277284
C      -6.470613   -0.684492   -0.115779
H       0.556356    1.742723    0.765122
H       0.843692   -0.341009   -0.480389
H      -0.135373   -1.686703    1.442266
H      -1.039986   -0.193798    1.987003
H      -1.282177   -1.536284   -0.802677
H      -2.571420    1.024994    0.322460
H      -2.780190    0.447297   -1.316612
H      -3.917537   -1.626298   -0.456237
H      -3.715841   -1.051117    1.189366
H      -5.198768    0.958354    0.628045
H      -6.391178    1.019224   -1.567432
H      -5.491272   -0.467017   -2.109682
H      -6.441200   -1.768108   -0.171647
H      -7.346387   -0.292237    0.389689
