19

C      -0.128710    1.600417   -0.052964
C       0.046339    0.087414   -0.025455
C       0.710081   -0.602451   -1.224412
C       2.137756   -0.232945   -1.374997
C       1.797872   -1.222867   -0.281025
C       2.275864   -2.610927   -0.323029
O       2.668243   -3.176792   -1.318589
C       1.165279   -0.521792    0.910556
O       2.053787    0.364947    1.555003
H       0.816574    2.116476   -0.237025
H      -0.835421    1.894457   -0.835789
H      -0.525015    1.964817    0.901851
H      -0.911345   -0.391115    0.201046
H       0.187675   -1.160314   -1.992119
H       2.652109   -0.692385   -2.211924
H       2.502678    0.744971   -1.080218
H       2.230283   -3.140620    0.656713
H       0.739303   -1.242000    1.623309
H       1.585136    0.792504    2.279333
