14

F       0.047426    0.089174   -0.047866
C      -0.016105    1.406828    0.047328
F       1.233143    1.898715    0.083471
F      -0.610464    1.892097   -1.055025
C      -0.796792    1.861906    1.308751
O      -1.257784    1.038420    2.059791
C      -0.905804    3.326246    1.476518
C      -2.183363    3.850377    2.126808
C      -0.920221    3.854972    2.908261
H      -0.437417    3.937125    0.715803
H      -2.571553    4.786201    1.742716
H      -2.924575    3.098546    2.371935
H      -0.804671    3.106338    3.683456
H      -0.408160    4.794073    3.081122
