15

O       0.045844   -0.000877    0.044761
C      -0.012017    1.192940    0.001807
C      -1.192756    2.171589    0.043491
C      -0.861979    2.998216    1.306353
C      -0.361440    4.162835    0.495788
C       0.649150    3.210524    1.091159
C       1.095129    2.273424   -0.054704
O       0.676220    2.942977   -1.260376
C      -0.608836    3.375925   -0.810211
H      -2.196491    1.802429   -0.136934
H      -1.342155    2.953639    2.273702
H      -0.387664    5.229007    0.673728
H       1.296303    3.503258    1.904485
H       2.131726    1.956741   -0.112365
H      -1.190116    3.795821   -1.626406
