21

C      -0.009034    1.440532    0.031444
C       0.007172   -0.055558   -0.046382
C      -0.948164   -0.968441    0.731003
C       0.549840   -1.073856    0.934811
C       0.551128   -2.100552   -0.242851
C       1.478956   -3.258418   -0.454707
C      -1.031835   -2.177760   -0.225273
C      -1.081064   -1.611704   -1.665273
C       0.265363   -0.947557   -1.287477
H       0.952771    1.870741   -0.271464
H      -0.783092    1.866609   -0.618608
H      -0.213879    1.778311    1.053483
H      -1.699495   -0.577048    1.405434
H       1.158996   -0.957782    1.823004
H       1.419013   -3.973789    0.374095
H       1.235484   -3.797293   -1.377972
H       2.520787   -2.924614   -0.529939
H      -1.588055   -3.062315    0.086483
H      -0.952434   -2.396801   -2.417743
H      -1.921656   -0.968270   -1.945134
H       0.992878   -0.612210   -2.028219
