15

N      -0.416808    0.935144    0.998867
C      -0.116800   -0.159619    0.187356
C      -0.895099   -0.799308   -0.736892
O      -0.164201   -1.737228   -1.388961
N       1.121001   -1.745848   -0.878522
C       1.142860   -0.812971    0.041233
C      -2.306262   -0.647208   -1.129831
C      -3.410797   -0.994865   -0.213034
O      -3.026533    0.367132   -0.418841
H      -0.046152    0.860962    1.936602
H      -1.409053    1.134749    1.010933
H       2.060608   -0.621906    0.580265
H      -2.507318   -0.688139   -2.200364
H      -4.381605   -1.267322   -0.623043
H      -3.174688   -1.404987    0.766390
