17

O       0.435380    1.092338   -0.294875
C       0.092537   -0.246732   -0.048674
C      -0.245004   -0.693880    1.393613
C      -1.480212   -1.472992    0.826058
C      -1.360601   -0.627932   -0.467050
C      -2.275025    0.578894   -0.491550
O      -3.063338    0.854849    0.377644
C       0.794507   -1.459179    2.157797
O       1.931155   -1.614590    1.781433
H       1.362223    1.214677   -0.064855
H       0.819977   -0.938927   -0.489040
H      -0.596539    0.151357    1.996504
H      -1.271971   -2.531335    0.656074
H      -2.416010   -1.354670    1.370658
H      -1.442714   -1.143171   -1.429567
H      -2.168683    1.216951   -1.393306
H       0.445905   -1.903811    3.117854
