10

N      -0.057853    1.325319    0.007608
C       0.054859   -0.026628    0.001328
O       1.095051   -0.645030   -0.010065
C      -1.269020   -0.735027    0.009482
N      -2.435381   -0.153699    0.021307
O      -3.328517   -1.153298    0.024485
N      -2.622439   -2.378402    0.015193
N      -1.400630   -2.111810    0.004982
H       0.786281    1.873430    0.002256
H      -0.952853    1.785032    0.016583
