17

C       0.212817    1.250497   -0.199287
N       0.027085    0.098462    0.659175
C      -1.151424   -0.829068    0.543941
C      -0.190506   -1.974002    1.055987
N       0.198754   -3.171151    0.368551
C       1.551183   -3.045299   -0.067282
O       2.208258   -3.967449   -0.489784
C       1.898491   -1.594899    0.007757
C       0.863436   -1.006234    0.627279
H       1.153858    1.744992    0.056550
H       0.240304    0.975528   -1.265781
H      -0.600192    1.962942   -0.037204
H      -2.008018   -0.553270    1.164312
H      -1.450529   -0.982834   -0.498875
H      -0.295107   -2.101356    2.137982
H      -0.070081   -4.080409    0.715209
H       2.728593   -1.171349   -0.534930
