20

C      -0.033550    1.549897    0.069591
C      -0.070921    0.024031   -0.038513
C       0.709832   -0.496913   -1.253416
N       0.734481   -1.946061   -1.268201
C       0.200044   -2.608099   -2.216513
N       0.129026   -3.977908   -2.208200
C       0.813492   -4.737799   -1.179465
C      -0.422016   -2.012490   -3.397507
N      -0.900487   -1.531336   -4.333815
H       0.994139    1.916422    0.170984
H      -0.467502    2.023805   -0.817736
H      -0.597270    1.897330    0.940484
H       0.345753   -0.433867    0.865688
H      -1.108998   -0.322699   -0.111799
H       0.290416   -0.062513   -2.174511
H       1.748846   -0.148333   -1.178436
H      -0.052178   -4.428022   -3.089862
H       1.900458   -4.587595   -1.205088
H       0.460320   -4.424406   -0.194115
H       0.589679   -5.796692   -1.321418
