14

N      -0.087935   -1.164767   -0.056148
C      -0.061890   -0.010611   -0.017303
C      -0.003317    1.456536    0.010022
O      -0.491999    1.961218    1.272469
C       0.617983    2.669804    1.774700
C       1.358462    3.431689    0.638226
O       2.643194    3.223928    1.305849
C       1.955170    1.939602    1.457124
C       1.421387    2.011558   -0.007851
H      -0.624557    1.849325   -0.803403
H       0.415556    3.119539    2.742815
H       1.159954    4.397229    0.175438
H       2.467344    1.128115    1.970420
H       2.077157    1.807248   -0.850253
