20

C      -0.239775    1.427942   -0.121637
C      -0.336620   -0.093054   -0.342837
C      -1.675882   -0.618959   -0.099024
C      -2.799216   -1.016924    0.090274
C      -4.130328   -1.558026    0.396902
N      -4.259542   -3.011653    0.246389
C      -4.214278   -3.461663   -1.143497
C      -4.475806   -1.219787    1.854229
O      -5.243072   -0.362464    2.192684
H       0.779309    1.774964   -0.315437
H      -0.920105    1.961518   -0.790470
H      -0.504325    1.688701    0.906452
H      -0.034484   -0.335218   -1.369812
H       0.380255   -0.606077    0.310955
H      -4.891527   -1.077752   -0.227736
H      -3.505019   -3.455287    0.762282
H      -3.311063   -3.143219   -1.687535
H      -4.268705   -4.553476   -1.166279
H      -5.087336   -3.072069   -1.677825
H      -3.937609   -1.856493    2.593007
