16

O      -1.093340    1.339502    0.088147
C       0.027848    0.963195    0.310165
C       1.266967    1.700116   -0.109988
C       2.363317    1.709618    0.889035
O       2.409640    0.837558   -0.230450
C       1.107170    2.781404   -1.129889
C       2.299420    3.302681   -1.886123
C       1.274474    2.453372   -2.593621
H       0.244933    0.021287    0.862359
H       3.054912    2.549280    0.865283
H       2.237141    1.222721    1.855298
H       0.319460    3.483473   -0.879172
H       2.338938    4.363953   -2.103294
H       3.260038    2.842013   -1.684464
H       1.565035    1.440392   -2.848760
H       0.599135    2.923498   -3.298764
