19

C       0.224325    1.552604    0.045030
C       0.107819    0.057331    0.038400
C      -0.926505   -0.727723    0.824844
C       0.533880   -1.011693    1.035209
O       1.008204   -1.887093    0.007632
C       0.721275   -0.878465   -0.999838
C       1.260299   -0.983789    2.321227
C       2.222361   -2.039154    2.670881
O       2.671963   -0.746521    2.265217
H       1.246666    1.873007   -0.182254
H      -0.444129    2.006126   -0.696909
H      -0.045086    1.965750    1.022101
H      -1.416844   -0.158269    1.609602
H      -1.544700   -1.485335    0.349746
H       0.071361   -1.262223   -1.795310
H       1.652748   -0.493503   -1.430872
H       0.747250   -0.456788    3.125786
H       2.386022   -2.289848    3.718205
H       2.403277   -2.836550    1.954088
