15

O      -0.024858    1.383044   -0.079675
C      -0.069805    0.004409   -0.021490
C      -0.424694   -0.692068    1.250108
N      -1.135165    0.164121    2.168333
C      -2.371291    0.450192    1.581774
N      -2.576287   -0.011927    0.407657
C      -1.410916   -0.764030    0.022488
C      -1.577922   -1.917808   -0.804547
C      -1.675746   -2.893932   -1.500713
H      -0.166360    1.713901    0.817715
H       0.680330   -0.475988   -0.641916
H       0.141821   -1.521474    1.655051
H      -1.099515   -0.044916    3.155692
H      -3.077801    1.077617    2.114669
H      -1.778413   -3.750245   -2.119733
