15

O       0.049367    1.376280    0.131467
C       0.020414   -0.014405    0.005918
C      -1.339395   -0.628210   -0.435575
C      -1.486846   -0.025787   -1.832464
O      -0.117505    0.025568   -2.302811
C       0.683320   -0.576700   -1.260101
C       0.275877   -2.048103   -1.147599
O       0.850433   -3.052579   -1.432709
O      -0.993743   -2.021416   -0.614405
H       0.107809    1.745787   -0.758961
H       0.379077   -0.462744    0.935013
H      -2.190324   -0.547470    0.236017
H      -2.085955   -0.662952   -2.488937
H      -1.908003    0.984735   -1.812031
H       1.735546   -0.392963   -1.458129
