19

O       0.047998   -0.040189    0.173313
C       0.047821    1.153503    0.219048
O       1.066638    1.902847   -0.234874
C       0.970933    3.336362   -0.135272
C       2.139609    3.859332    0.695422
C       2.051794    5.386385    0.846675
C       1.695684    6.064935   -0.450766
C       1.228475    5.416187   -1.516700
C       0.978440    3.929433   -1.544325
H      -0.780372    1.761567    0.635253
H       0.026138    3.592922    0.364805
H       2.148842    3.369140    1.673907
H       3.072358    3.586151    0.188871
H       1.309796    5.650797    1.614764
H       3.005982    5.775073    1.222246
H       1.835498    7.142131   -0.495836
H       1.003186    5.962998   -2.428541
H       1.750924    3.418349   -2.135245
H       0.027078    3.710857   -2.044701
