16

C      -0.099726    1.398203   -0.163628
C       0.096806   -0.077886    0.076655
N       1.443709   -0.621501   -0.036963
C       0.806050   -0.639410    1.291613
C       1.399196    0.217946    2.386648
C       0.272403   -1.967220    1.720267
O       0.106160   -2.898703    0.966494
H       0.762572    1.979137    0.168692
H      -0.228547    1.582451   -1.235687
H      -0.994697    1.765304    0.349456
H      -0.709018   -0.710815   -0.292917
H       1.393130   -1.570434   -0.410284
H       1.697970    1.195910    2.008545
H       0.677882    0.369075    3.197586
H       2.290037   -0.257503    2.811006
H       0.030838   -2.055302    2.801896
