15

N       0.051794    1.421678    0.150550
C      -0.066175    0.037962    0.046897
C      -1.184146   -0.778655    0.037038
C      -2.626204   -0.929546    0.050203
C      -2.925715   -2.242141    0.013381
C      -1.661064   -3.081258   -0.027138
N      -0.648766   -2.034504   -0.008775
N       0.677832   -2.030766   -0.014086
N       1.038904   -0.762649    0.012956
H       1.006969    1.707832   -0.026629
H      -0.583090    1.932555   -0.448508
H      -3.332456   -0.112558    0.089398
H      -3.912241   -2.683365    0.015397
H      -1.557937   -3.743353    0.840122
H      -1.579679   -3.694704   -0.931871
