19

O      -0.023653    1.364193    0.058549
C       0.021759   -0.013685    0.014833
C       0.635141   -0.940277   -1.132535
C      -0.022561   -1.882480   -0.093319
C       0.622015   -1.004081    1.038511
C      -0.616022   -3.240667    0.175747
C      -1.808718   -2.810381    1.111499
O      -2.017570   -1.379121    0.992838
C      -1.222621   -0.934158   -0.081123
H       0.870421    1.698114    0.190297
H       0.165318   -0.879926   -2.117586
H       1.725316   -0.951761   -1.200604
H       1.712967   -1.044320    1.105236
H       0.145685   -1.035286    2.017973
H      -0.989609   -3.705437   -0.742065
H       0.048542   -3.950404    0.674571
H      -2.734065   -3.333372    0.843117
H      -1.588871   -3.025169    2.162649
H      -1.807979   -0.835520   -1.004522
