15

O       0.233529    0.887385    0.973566
C      -0.061787    0.163832   -0.216498
C      -1.408162   -0.384127   -0.142286
C      -2.522378   -0.844949   -0.107972
C      -3.819566   -1.403154   -0.053886
C      -4.988136   -0.817763   -0.460829
O      -6.036522   -1.646373   -0.258108
C      -5.542172   -2.791753    0.290819
C      -4.199399   -2.706760    0.440678
H       1.128349    1.231408    0.883810
H       0.012122    0.812630   -1.104823
H       0.652579   -0.662312   -0.367040
H      -5.211463    0.143242   -0.892578
H      -6.269856   -3.554745    0.511023
H      -3.538135   -3.454384    0.847518
