19

C       0.217751    1.676009    0.139631
C      -0.033398    0.184660    0.197790
O       0.556156   -0.536467   -0.923231
C       1.175166   -1.502271   -0.056347
C       2.644421   -1.190008    0.302019
C       2.170904   -0.386140    1.551556
C       0.693068   -0.719796    1.221521
C       0.763199   -2.912997   -0.353847
O       1.368603   -3.885711    0.023508
H       1.285274    1.907366    0.102116
H      -0.249063    2.094505   -0.757516
H      -0.220054    2.171479    1.012984
H      -1.116474   -0.003368    0.217584
H       3.203305   -2.095646    0.545892
H       3.167363   -0.628750   -0.474307
H       2.499147   -0.825686    2.495360
H       2.422581    0.676251    1.568649
H       0.083713   -1.162274    2.008465
H      -0.177601   -2.991063   -0.943287
