11

F      -0.023119    0.025197   -0.356105
C      -0.038559    1.315641   -0.056438
C      -1.178494    1.992661    0.107760
O      -1.217847    3.306838    0.413090
C      -0.057828    4.017623    0.571051
N      -0.143764    5.233783    0.854323
O       1.118073    3.340982    0.406572
C       1.246795    1.984679    0.090924
O       2.334334    1.513944   -0.025115
H      -2.163418    1.554864    0.012186
H       0.781033    5.648002    0.944930
