20

C      -0.290872    1.515504    0.326452
C       0.005165    0.064361   -0.001565
C       0.544641   -0.531058   -1.288132
C       1.420613    0.236268   -2.260729
N       1.813132    1.619820   -1.882140
C       2.741073    0.497645   -1.642364
C       2.698216    0.045466   -0.174034
O       2.979077    1.098985    0.728576
C       1.334623   -0.658570    0.007798
H      -1.306425    1.766655   -0.000879
H      -0.249019    1.668097    1.410684
H       0.388693    2.208221   -0.162630
H      -0.764841   -0.583411    0.417849
H       0.017490   -1.377768   -1.715847
H       1.320058    0.016815   -3.318502
H       2.099219    2.129208   -2.714265
H       3.678971    0.470049   -2.187415
H       3.483897   -0.699392   -0.007999
H       2.482709    1.860772    0.405376
H       1.366968   -1.598833    0.548579
