17

O      -0.185205    1.471935    0.157358
C       0.006348    0.073543    0.310325
C      -1.342146   -0.571016    0.113329
C      -1.811922   -1.121878   -1.190269
O      -0.842599   -1.292400   -2.201004
C      -0.014025   -2.408021   -1.911305
C      -0.401483   -2.924572   -0.519170
O       0.082876   -3.881227    0.029088
C      -1.549308   -2.085183   -0.053985
H       0.658802    1.908027    0.307298
H       0.729422   -0.310005   -0.422271
H       0.386596   -0.170793    1.314333
H      -2.115978   -0.114019    0.724916
H      -2.800812   -0.905151   -1.578695
H      -0.176356   -3.208193   -2.646888
H       1.044597   -2.125535   -1.947649
H      -2.311859   -2.570998    0.541240
