12

N       0.025810    1.356247   -0.022530
C      -0.030616    0.004340    0.010211
C      -1.146634   -0.767610    0.062984
F      -2.364695   -0.211471    0.046375
C      -1.032393   -2.177429    0.139067
N       0.082645   -2.834490    0.158270
O       1.242624   -2.057509    0.090235
C       1.263075   -0.693804    0.010636
O       2.319310   -0.113414   -0.061854
H       0.930549    1.752541   -0.226782
H      -0.799890    1.886169   -0.241079
H      -1.926448   -2.791158    0.188884
