14

O       0.104135    1.422428   -0.039870
C      -0.036779    0.049647    0.038899
C       1.019551   -0.603146   -0.722889
N       1.846130   -1.147061   -1.319027
C      -0.432383   -0.780360    1.254712
C      -1.615223   -0.162468    2.053611
O      -2.014252    1.092663    1.462052
C      -2.460655   -0.143913    0.865292
C      -1.327204   -0.760690   -0.003048
H      -0.624877    1.787027    0.484525
H       0.184940   -1.582664    1.636623
H      -1.834586   -0.306413    3.103491
H      -3.526409   -0.269277    0.725503
H      -1.497315   -1.545680   -0.727952
