13

C       0.041162    1.544586    0.017708
C      -0.034583    0.061495    0.027154
C      -1.071907   -0.781206   -0.044829
O      -2.392518   -0.550724   -0.092425
O      -0.660179   -2.092414    0.000660
C       0.734585   -2.103280    0.107285
O       1.394683   -3.104249    0.150614
N       1.095021   -0.785840    0.142874
H       0.674837    1.914855   -0.797732
H      -0.959917    1.959095   -0.118213
H       0.445768    1.942279    0.956815
H      -2.815907   -1.283766   -0.556162
H       2.055347   -0.497376    0.202908
