12

F       0.083686    0.059004    0.032313
C      -0.028980    1.393878    0.012278
F       1.203624    1.904277   -0.105642
F      -0.711819    1.726491   -1.090238
C      -0.691567    1.882715    1.219419
C      -1.228362    2.288048    2.214767
C      -1.893651    2.749305    3.404090
C      -1.155095    3.461126    4.467512
O      -2.009649    4.166643    3.578335
H      -2.783428    2.186654    3.682610
H      -1.506144    3.373980    5.494389
H      -0.089973    3.641381    4.339445
