20

O      -0.019811    1.524956    0.484795
C       0.081074    0.118086    0.334884
C      -1.320459   -0.435029    0.067593
C      -2.462310    0.174615    0.919674
O      -3.095065    0.742332   -0.241723
C      -2.061567    0.244537   -1.111986
N      -1.436043   -1.889785    0.008859
C      -0.294656   -2.763729   -0.238864
C      -0.948282   -2.721494    1.100975
H       0.867021    1.884853    0.574819
H       0.735781   -0.138028   -0.512576
H       0.510895   -0.342115    1.239093
H      -3.093689   -0.573380    1.412756
H      -2.151340    0.943159    1.634535
H      -1.511885    1.058962   -1.597107
H      -2.446510   -0.458394   -1.858815
H      -0.482635   -3.589220   -0.920232
H       0.704844   -2.342763   -0.312607
H      -0.385090   -2.261084    1.910598
H      -1.619022   -3.516287    1.416450
