19

C       0.057864    1.673796   -0.014981
C      -0.167593    0.160308   -0.086868
C       0.691372   -0.508661   -1.147837
O       2.087992   -0.357255   -0.827187
C       2.773637   -1.442093   -1.268662
O       3.959006   -1.538336   -1.285495
O       1.910992   -2.403575   -1.687399
C       0.562699   -2.038045   -1.330971
C       0.127058   -2.844243   -0.115091
H       1.099863    1.899537    0.225558
H      -0.179532    2.155507   -0.969616
H      -0.576014    2.123575    0.754125
H       0.039981   -0.295986    0.886401
H      -1.218317   -0.052061   -0.321811
H       0.526745   -0.014910   -2.115636
H      -0.071173   -2.273979   -2.189635
H       0.754154   -2.623685    0.753442
H      -0.914292   -2.629617    0.141444
H       0.214019   -3.910763   -0.336818
