25

C       0.210113    1.351749    0.314910
C      -0.141504   -0.102271   -0.039405
C      -1.657468   -0.279309   -0.223406
C       0.648827   -0.607569   -1.250357
C       0.383374    0.128714   -2.559371
C       2.079094   -1.084471   -1.140028
C       2.370622   -1.832256    0.168337
C       1.220146   -2.836617   -0.163240
C       0.945819   -2.073935   -1.466712
H       1.290783    1.480209    0.435670
H      -0.125658    2.049725   -0.459392
H      -0.272128    1.649502    1.252034
H       0.143699   -0.713512    0.823170
H      -2.048058    0.370671   -1.013610
H      -1.907012   -1.312618   -0.485948
H      -2.191653   -0.026775    0.698705
H       0.636050    1.191392   -2.485090
H       0.986256   -0.294824   -3.368828
H      -0.666623    0.054482   -2.860437
H       2.843571   -0.690666   -1.801082
H       3.348898   -2.318114    0.157682
H       2.286907   -1.256925    1.096033
H       1.601140   -3.843909   -0.345996
H       0.392939   -2.910306    0.550157
H       0.715667   -2.548572   -2.414472
