19

C       1.002017    2.104086   -0.837744
C       0.243080    0.792785   -0.607540
N       0.838422   -0.296927   -1.368413
C       1.626187   -1.099902   -0.790759
N       2.094029   -2.202009   -1.552240
C       3.366926   -2.723981   -1.611491
O       4.272821   -2.513188   -0.841037
O       2.045711   -0.984997    0.480579
C       2.196518   -2.156517    1.297062
H       2.021650    2.032967   -0.447351
H       1.060774    2.333747   -1.905629
H       0.496975    2.933048   -0.331747
H       0.208665    0.572943    0.467199
H      -0.788461    0.908316   -0.959891
H       1.535663   -2.322033   -2.386528
H       3.459958   -3.409338   -2.476383
H       1.339994   -2.827330    1.176080
H       3.127296   -2.671968    1.058627
H       2.224375   -1.790179    2.324284
