12

C      -0.027160    1.396338    0.031458
O       0.017902   -0.040681   -0.024475
C       0.626171   -0.552215   -1.087536
O       1.131222    0.076596   -1.987385
C       0.628370   -2.090597   -1.066483
O       0.133229   -2.736883   -0.185909
C       1.324654   -2.758214   -2.279522
O       1.382037   -3.954309   -2.361025
H       0.985211    1.806847    0.043111
H      -0.562523    1.792449   -0.834587
H      -0.552684    1.636736    0.954193
H       1.748449   -2.074334   -3.035402
