23

C       0.679014    0.677169   -0.694821
C      -0.172492   -0.090148    0.302070
O       0.683299   -0.776843    1.193730
C      -0.007414   -1.528598    2.167059
C       1.023085   -2.153465    3.091257
O       0.386398   -2.920682    4.136436
C       1.129110   -4.108516    3.787122
C       1.840777   -3.388507    2.618906
C       1.617202   -3.933038    1.214583
H       1.314229   -0.007078   -1.264697
H       0.043644    1.226297   -1.396077
H       1.324543    1.392342   -0.177150
H      -0.827583    0.597573    0.863124
H      -0.830733   -0.805396   -0.219610
H      -0.675070   -0.887823    2.767674
H      -0.637065   -2.302473    1.700029
H       1.646946   -1.350249    3.505809
H       1.772852   -4.443729    4.609777
H       0.465051   -4.934314    3.498781
H       2.910827   -3.253104    2.794360
H       0.564959   -4.178713    1.038048
H       1.922221   -3.201621    0.461016
H       2.197344   -4.849036    1.060333
