18

C       0.132233    1.412581    0.213499
C      -0.151811   -0.067216    0.113771
O      -0.666921   -0.741923    0.969321
O       0.254959   -0.550998   -1.081092
C       0.054870   -1.951624   -1.295136
C      -1.332185   -2.427267   -1.781237
C      -0.589845   -3.364506   -2.776378
C       0.678776   -2.480976   -2.597645
H       1.205276    1.596057    0.107298
H      -0.369616    1.946734   -0.598233
H      -0.215472    1.785222    1.176150
H       0.379942   -2.496624   -0.406348
H      -2.002638   -2.865769   -1.041108
H      -1.849753   -1.618005   -2.304416
H      -0.450783   -4.368327   -2.366968
H      -0.999253   -3.453485   -3.783880
H       0.720502   -1.685482   -3.346687
H       1.654545   -2.967349   -2.537323
