20

C       0.165063    1.533199   -0.147923
C      -0.106718    0.037897    0.072907
C       0.624051   -0.512353    1.267715
C       2.065675   -0.949034    1.221096
C       1.025468   -1.947151    1.645148
C       0.665861   -1.702196    3.113096
C       0.220538   -0.250675    2.717336
O       0.878247    0.854782    3.303846
H       1.226239    1.710531   -0.349754
H      -0.412080    1.920335   -0.993664
H      -0.099140    2.113862    0.741294
H      -1.186391   -0.122836    0.198627
H       0.183645   -0.527517   -0.821727
H       2.461241   -1.081489    0.218406
H       2.784993   -0.567214    1.940484
H       0.840084   -2.860982    1.093399
H      -0.161610   -2.311139    3.485186
H       1.500443   -1.758805    3.820171
H      -0.870627   -0.144513    2.802582
H       0.581351    0.933126    4.216216
