16

C       0.035090    1.556021    0.027558
C      -0.038078    0.060533    0.074896
C      -1.330068   -0.775327   -0.001754
C      -0.681225   -1.816792    0.984034
C      -0.535026   -3.187489    0.513677
N      -0.403491   -4.261959    0.106201
C       0.600219   -0.948672    0.994673
N       1.110736   -0.730811   -0.346323
H       1.047786    1.893502    0.260934
H      -0.220153    1.925891   -0.972426
H      -0.661674    2.009290    0.740372
H      -2.199351   -0.291618    0.448618
H      -1.601871   -1.147181   -0.993526
H      -1.189785   -1.814920    1.950978
H       1.270257   -0.838711    1.839527
H       0.898334   -1.487520   -0.995028
