18

O       0.063075    1.455200   -0.060803
C       0.034850    0.072644    0.223515
C      -1.362159   -0.510424    0.039165
O      -1.761372   -0.246669   -1.341912
C      -1.949558   -1.468615   -1.905852
N      -1.816958   -2.510437   -1.197882
C      -1.479687   -2.039802    0.132214
C      -0.607464   -2.912980    0.998207
C      -2.076956   -2.763304    1.308905
H      -0.301989    1.559222   -0.947179
H       0.744178   -0.493032   -0.401282
H       0.345899   -0.041527    1.267118
H      -2.072850    0.020888    0.680392
H      -2.214034   -1.445089   -2.956493
H      -0.272343   -3.844768    0.558239
H       0.108463   -2.438733    1.660404
H      -2.359697   -2.170390    2.173246
H      -2.734184   -3.595854    1.087514
