17

C       0.086025    1.365095    0.381879
C      -0.031639   -0.020214   -0.203231
O       0.917694   -0.566002   -0.750669
C      -1.334375   -0.732337   -0.068392
C      -1.646778   -1.771851   -1.174791
C      -1.182473   -2.309862    0.115444
O       0.048488   -2.876745    0.297284
C      -2.433956   -0.089335    0.582241
C      -3.373213    0.427348    1.130530
H       1.093849    1.746029    0.216200
H      -0.653173    2.033723   -0.071178
H      -0.137094    1.340012    1.453773
H      -2.693093   -1.862279   -1.441803
H      -0.940538   -1.774022   -1.998429
H      -1.916839   -2.723678    0.797556
H       0.682457   -2.358855   -0.231883
H      -4.197788    0.888618    1.615016
