19

C       0.011552    1.503746    0.034836
C       0.009863   -0.026956    0.039797
C      -1.441196   -0.557740    0.020984
C      -1.515286   -2.013006    0.073358
C      -1.533447   -3.215021    0.105720
N       0.707163   -0.560520   -1.133639
C       2.157285   -0.414514   -1.076562
C       2.795187   -1.095140   -2.206532
N       3.303730   -1.646297   -3.084842
H       1.024445    1.909895    0.107213
H      -0.441065    1.881594   -0.887044
H      -0.552663    1.889276    0.889550
H       0.478683   -0.377073    0.978541
H      -1.983822   -0.127634    0.870492
H      -1.933519   -0.195037   -0.890034
H      -1.571863   -4.275997    0.137729
H       0.481130   -1.547292   -1.223600
H       2.425823    0.646630   -1.130715
H       2.610269   -0.804958   -0.145813
