18

C      -0.037636    1.433753    0.063887
C       0.084346   -0.055346    0.054301
C       0.244389   -1.026307   -1.056990
C       0.622386   -2.104468   -0.010201
C      -0.870322   -2.120563    0.440866
C      -0.481261   -1.622777    1.850648
O      -0.018161   -2.650670    2.702475
C       0.713761   -0.989391    1.109060
N      -1.100373   -0.883463   -0.405526
H       0.948126    1.911266    0.052359
H      -0.596452    1.772534   -0.813276
H      -0.571796    1.778954    0.956538
H       0.398094   -0.901033   -2.122444
H       1.293847   -2.952047   -0.098705
H      -1.593608   -2.917606    0.264368
H      -1.184717   -0.947249    2.358165
H      -0.772502   -3.194530    2.951410
H       1.630219   -0.697667    1.618065
