23

C      -1.503795   -0.443699   -0.040292
C       0.008462   -0.341467    0.199737
C       0.467609   -1.372662    1.239316
C       0.764703   -0.465518   -1.136272
C       2.273906   -0.230879   -1.068908
C       3.199887   -1.424615   -0.865284
C       3.122659   -0.771420   -2.212989
C       2.683789    1.025378   -0.496479
C       3.011544    2.080877   -0.019561
H      -1.850165    0.315874   -0.749234
H      -1.772955   -1.426119   -0.447692
H      -2.060837   -0.310153    0.892854
H       0.221184    0.657959    0.601301
H       0.301997   -2.395972    0.879437
H       1.529928   -1.265956    1.473591
H      -0.093342   -1.258050    2.172818
H       0.592686   -1.463887   -1.561094
H       0.337040    0.252010   -1.848238
H       4.092822   -1.271900   -0.270869
H       2.727308   -2.391582   -0.733827
H       2.595995   -1.287520   -3.008799
H       3.961206   -0.168815   -2.540467
H       3.305191    3.010493    0.400642
