19

C      -0.135789    1.458248   -0.021853
C       1.440452    1.506013    0.097132
C       1.497580    0.131530   -0.631074
O       1.918384    0.184842   -2.011786
C       2.441668   -1.159107   -1.937409
C       2.111939   -1.279247   -0.433855
C       0.914974   -2.188906   -0.029547
C      -0.282304   -1.245093    0.088365
C       0.040483   -0.018123   -0.307752
H      -0.726017    1.736922    0.854172
H      -0.482490    2.035792   -0.883818
H       1.946134    2.319079   -0.428571
H       1.784336    1.459764    1.132775
H       1.894750   -1.853390   -2.588280
H       3.505783   -1.184567   -2.199591
H       2.980034   -1.395559    0.215907
H       0.756984   -2.997150   -0.756470
H       1.090701   -2.682710    0.934363
H      -1.211042   -1.562959    0.551231
