17

O      -0.064541   -0.260600    0.037251
C       0.233027    0.774435   -0.499762
C       1.190134    1.796907    0.105057
N       1.336756    2.931570   -0.794777
C       1.340707    4.339224   -0.534759
C       2.309248    4.804821    0.615587
N       2.919526    3.604970    1.237047
C       3.442912    4.134163   -0.045267
C       2.501030    3.652808   -1.211166
H      -0.174465    1.068337   -1.494475
H       0.803514    2.098485    1.082930
H       2.146990    1.304013    0.300262
H       0.564189    4.972262   -0.950956
H       2.264392    5.755875    1.128800
H       3.543223    3.932887    1.974185
H       4.471156    4.450388   -0.157595
H       2.799678    3.649832   -2.254113
