17

C      -0.313407    1.878056    0.228590
C      -0.167707    0.418001   -0.208036
C       0.769171   -0.362624    0.729057
N      -1.490698   -0.197012   -0.205688
C      -1.744059   -1.166489   -0.991154
N      -0.910721   -1.819995   -1.882056
C      -3.081187   -1.737282   -0.941757
N      -4.138606   -2.203632   -0.936168
H       0.658324    2.381934    0.230962
H      -0.983263    2.418469   -0.445777
H      -0.737815    1.927576    1.235752
H       0.274933    0.415625   -1.221388
H       0.357038   -0.375537    1.742324
H       0.891665   -1.398703    0.399937
H       1.756491    0.108361    0.761855
H      -0.056312   -1.352097   -2.140641
H      -1.349435   -2.341559   -2.624788
