17

C      -0.066998    1.510172   -0.032642
C      -0.019007    0.056094   -0.044221
C       0.015119   -1.150680   -0.054286
C       0.045464   -2.563410   -0.066867
C       1.169799   -3.381799    0.018471
C       2.615546   -3.040008    0.143121
N       0.698576   -4.650947   -0.034550
N      -0.646038   -4.734099   -0.147971
C      -1.044870   -3.472145   -0.167844
H       0.498422    1.938576   -0.868337
H      -1.098767    1.869704   -0.115073
H       0.351014    1.919677    0.894283
H       3.052931   -3.444406    1.063235
H       3.200482   -3.425514   -0.699902
H       2.727502   -1.954220    0.164124
H       1.234718   -5.501762    0.001215
H      -2.094253   -3.232931   -0.253107
