17

C       0.021914    1.510639    0.039887
C       0.024969    0.021903    0.015530
C       0.919989   -1.024464   -0.583081
C       0.556962   -1.049806    0.922572
C      -0.760236   -1.829723    0.838873
C      -0.604806   -2.966112   -0.186680
C      -0.284699   -1.796437   -1.133599
N      -1.185937   -0.863997   -0.291298
H       1.019362    1.891306    0.284819
H      -0.268543    1.919737   -0.934066
H      -0.680784    1.890891    0.789512
H       1.940254   -0.952028   -0.937900
H       1.302934   -0.996509    1.705364
H      -1.397984   -1.910008    1.719344
H       0.152193   -3.735671   -0.017167
H      -1.570714   -3.418850   -0.427203
H      -0.450667   -1.843683   -2.209992
