19

O       1.388555    1.596730    0.164265
C       0.629714    0.679223   -0.572397
C       1.574150   -0.216866   -1.408776
O       0.884342   -1.110747   -2.261418
C       0.565247   -0.593619   -3.520941
C      -0.422239   -1.370753   -4.325303
C      -0.798315   -0.003152   -3.786840
C      -0.225641   -0.164111    0.348419
O      -0.224684    0.013768    1.544359
H       1.135305    1.455587    1.091082
H      -0.052528    1.198292   -1.266797
H       2.249855    0.440499   -1.971414
H       2.184254   -0.823265   -0.731331
H       1.417287   -0.152482   -4.038180
H      -0.246765   -1.490918   -5.388057
H      -0.868648   -2.229739   -3.837580
H      -1.502284    0.018409   -2.962708
H      -0.878916    0.830906   -4.475489
H      -0.836556   -0.953166   -0.128308
