17

O      -0.205542    1.353094   -0.249508
C      -0.077135   -0.020674   -0.048180
C      -0.324559   -0.598230    1.349802
C      -1.358157   -0.775914    0.292088
C      -2.750362   -0.169817    0.121395
C      -3.019013   -1.374825   -0.821767
N      -1.786828   -2.029942   -0.300229
C       0.873077   -0.693178   -0.902535
N       1.608214   -1.254760   -1.598776
H       0.569967    1.791835    0.120367
H       0.258763   -1.462356    1.650779
H      -0.507749    0.139494    2.124668
H      -3.342461   -0.190919    1.038628
H      -2.783900    0.826384   -0.317800
H      -3.929721   -1.953010   -0.643860
H      -2.969552   -1.099346   -1.881786
H      -1.160508   -2.431585   -0.992228
