14

O      -0.005248    0.059136   -0.031319
C      -0.006622    1.249288    0.000729
C      -1.161751    2.300995    0.047029
C      -0.679033    3.067135    1.307626
O       0.757869    3.025019    1.226728
C       1.104219    2.326192    0.001008
C       0.628320    3.112018   -1.190683
C      -0.718724    3.084750   -1.164442
H      -2.181744    1.926524    0.075820
H      -1.017703    4.109052    1.321812
H      -1.006784    2.567489    2.227460
H       2.141716    2.010155    0.057550
H       1.263965    3.601535   -1.916109
H      -1.397012    3.545965   -1.870770
