22

C      -0.053771    1.530312    0.074986
N       0.103722    0.083899    0.004067
C       0.796329   -0.493868   -1.137739
C       1.384409   -1.602438   -0.329082
C       2.328449   -0.536658   -0.865017
C       3.353640   -0.649264   -1.952819
C       2.499541    0.052333    0.535014
C       1.119864   -0.603723    0.869954
C       0.711112   -0.937850    2.277377
H       0.857744    2.108204   -0.144761
H      -0.822532    1.835174   -0.643609
H      -0.407723    1.809403    1.073098
H       0.383439   -0.509121   -2.140359
H       1.341103   -2.678266   -0.423316
H       2.962647   -1.212403   -2.807805
H       3.654884    0.339250   -2.319547
H       4.257505   -1.164079   -1.605802
H       3.301885   -0.460324    1.074971
H       2.612473    1.134908    0.664655
H       0.581533   -0.026065    2.872588
H      -0.236223   -1.484533    2.285055
H       1.473921   -1.549581    2.769739
