15

O      -0.166940    1.324708    0.045312
N      -0.023548   -0.082462    0.070163
C      -1.152955   -0.650889    0.083130
C      -1.544630   -2.071327   -0.065076
C      -2.946681   -2.162467    0.606750
N      -3.168713   -0.848312    1.242218
C      -2.613694   -0.237998   -0.016728
C      -2.820460   -1.647617   -0.796400
O      -3.193852   -2.031837   -2.050578
H       0.750957    1.615006    0.041199
H      -0.937741   -2.948068   -0.239019
H      -3.304876   -3.101035    1.010712
H      -4.174137   -0.677845    1.255716
H      -2.920429    0.766001   -0.291176
H      -4.145109   -1.902405   -2.145724
