23

C      -0.150106    1.525339   -0.005834
C       0.029585    0.028353   -0.044878
C      -0.115395   -0.650777   -1.188384
C       0.039687   -2.134634   -1.391129
C      -0.457579   -3.017986   -0.204763
C       0.985758   -2.972217    0.374618
C       1.481550   -2.640534   -1.060717
C       1.234656   -1.837941    1.385131
C       0.307028   -0.605783    1.308592
H       0.768490    2.026320    0.327717
H      -0.422871    1.929917   -0.984114
H      -0.932732    1.811703    0.709767
H      -0.340848   -0.078447   -2.086483
H      -0.343639   -2.410671   -2.376523
H      -1.279370   -2.635162    0.404606
H      -0.717553   -4.023383   -0.548048
H       1.363099   -3.910220    0.792431
H       1.731992   -3.546189   -1.621756
H       2.295063   -1.917034   -1.161117
H       1.145229   -2.238920    2.402302
H       2.277470   -1.511192    1.281654
H       0.725765    0.161708    1.970981
H      -0.661059   -0.861694    1.763368
