20

C       0.021832    1.564545    0.044159
C       0.038240    0.064317   -0.005054
C      -0.928281   -0.803306    0.747260
C       0.547260   -0.957128    1.023900
C       1.242233   -1.756760   -0.082526
C       0.912418   -3.254806   -0.196639
C       1.525811   -3.871132   -1.371413
N       2.020857   -4.334485   -2.307496
C       0.662284   -0.763064   -1.143508
H       1.011554    1.983026   -0.171899
H      -0.678687    1.976948   -0.692278
H      -0.287296    1.925779    1.030538
H      -1.482976   -0.303972    1.535901
H      -1.497115   -1.580572    0.240660
H       0.955115   -0.785316    2.013828
H       2.327448   -1.643656   -0.019540
H       1.261145   -3.784693    0.697832
H      -0.170831   -3.408407   -0.250892
H      -0.042825   -1.181041   -1.870131
H       1.447334   -0.235886   -1.689654
