17

C       0.239753    0.824026   -0.055222
C      -0.115784   -0.296179    0.933186
O       0.076846    0.134534    2.254974
C      -1.547678   -0.767750    0.751150
N      -2.392770   -0.637094    1.672434
O      -1.703230   -1.318599   -0.513125
C      -2.907726   -1.824827   -0.952083
N      -2.744983   -2.276519   -2.217881
O      -3.936791   -1.851758   -0.322330
H       1.267408    1.146415    0.128752
H       0.155924    0.484374   -1.091017
H      -0.421872    1.682156    0.095620
H       0.535143   -1.162023    0.727586
H      -0.794395    0.071973    2.679590
H      -3.313066   -0.992016    1.421243
H      -1.837061   -2.294352   -2.646609
H      -3.518519   -2.746016   -2.653792
