19

C       0.238553    1.561582    0.198965
C      -0.145496    0.107936   -0.098537
C       0.631700   -0.488494   -1.269693
C       2.021601   -1.076052   -1.040263
C       0.889322   -1.993237   -1.398223
C       0.325983   -3.000235   -0.420496
C       0.433041    0.206068   -2.519355
N       0.259067    0.766507   -3.517215
H       1.300675    1.644959    0.451262
H       0.048417    2.204993   -0.665255
H      -0.341221    1.948492    1.041940
H       0.032071   -0.506255    0.788865
H      -1.218797    0.044257   -0.313040
H       2.793656   -0.875866   -1.773512
H       2.363930   -1.074464   -0.009979
H       0.892904   -2.340257   -2.427501
H       0.399085   -2.661073    0.615722
H      -0.725765   -3.218478   -0.632545
H       0.882534   -3.940489   -0.494929
