15

C       0.066959    1.463199    0.002884
C       0.003987   -0.042433    0.035133
O       1.032058   -0.736567    0.071921
C      -1.276080   -0.703200    0.025385
C      -1.355918   -2.089627    0.057287
O      -0.387960   -2.987016    0.098289
N      -2.679717   -2.394527    0.038074
C      -3.362225   -1.182326   -0.004758
N      -2.555396   -0.162925   -0.013200
H       1.107578    1.788712   -0.004474
H      -0.456137    1.843402   -0.880258
H      -0.451637    1.878399    0.873189
H       0.430261   -2.419771    0.100796
H      -3.072134   -3.321823    0.052325
H      -4.440828   -1.147773   -0.027272
