21

C       0.056044    1.611765    0.071820
C      -0.000913    0.107855   -0.059553
C      -0.017269   -0.441857   -1.287495
C      -0.120890   -1.836562   -1.723364
C      -0.886947   -2.801184   -1.197747
C      -1.741919   -2.604682    0.021134
O      -1.042304   -2.835628    1.244563
C       0.163665   -2.109101    1.394583
C       0.031568   -0.583595    1.291975
H       0.960060    1.929144    0.608169
H       0.040778    2.109776   -0.900336
H      -0.794187    1.984066    0.658267
H       0.071949    0.259105   -2.118017
H       0.448373   -2.071453   -2.622466
H      -0.864772   -3.792912   -1.641420
H      -2.165219   -1.589727    0.012471
H      -2.572344   -3.316074    0.037630
H       0.500018   -2.356434    2.406495
H       0.933601   -2.464660    0.697035
H       0.888371   -0.155611    1.834297
H      -0.846598   -0.268743    1.874660
