16

C       0.033430    1.439467    0.203780
C       0.017361   -0.047405    0.087620
C      -0.873517   -0.988901    0.801398
C       0.627334   -1.165911    0.996150
C       1.235570   -1.667727   -0.305132
O       0.565112   -0.642303   -1.085720
C       1.288466   -0.969203    2.284965
O       0.765327   -0.462946    3.254557
H       1.010120    1.843068   -0.076641
H      -0.722592    1.878603   -0.457060
H      -0.194718    1.735916    1.230972
H      -1.364419   -0.598108    1.686453
H      -1.418297   -1.745436    0.243248
H       2.322933   -1.536768   -0.357741
H       0.965905   -2.677992   -0.633087
H       2.353739   -1.293844    2.312774
