16

O       0.063983   -0.011088    0.048801
C       0.000165    1.172343   -0.051762
O       1.118958    1.953254    0.140654
C       0.978516    3.310221    0.119880
N      -0.127216    3.926600    0.237016
C       0.147910    5.365622    0.083126
C       1.669117    5.533282   -0.001612
C       2.464132    5.034558    1.167492
C       2.218324    4.116231   -0.016591
H      -0.885750    1.769447   -0.303214
H      -0.349165    5.724871   -0.825911
H      -0.290767    5.913477    0.924715
H       2.088050    6.306544   -0.633394
H       3.474576    5.411312    1.279405
H       1.955354    4.813977    2.100725
H       3.040603    3.763931   -0.625524
