19

C       0.096387    1.532688    0.163948
N       0.097252    0.081299    0.141609
C      -1.196790   -0.596537    0.377771
C      -0.468078   -1.658357    1.235003
O      -0.211227   -2.887903    0.596790
C       0.712201   -0.634350    1.290180
C       2.138357   -1.113376    1.028915
O       2.925796   -0.093916    0.431638
H       1.124650    1.903173    0.163313
H      -0.414466    1.920781   -0.723952
H      -0.411845    1.942260    1.057281
H      -1.899889    0.010784    0.970006
H      -1.711460   -0.955684   -0.521374
H      -0.923941   -1.908937    2.193157
H       0.068302   -2.703718   -0.306673
H       0.668811   -0.034278    2.213382
H       2.630449   -1.383435    1.968371
H       2.118120   -2.015004    0.400922
H       2.499081    0.104018   -0.410160
