17

C      -0.007316    1.559674    0.067155
C       0.029317    0.060280    0.012817
C      -0.879312   -0.831222    0.804261
C       0.606948   -0.971251    1.004448
C       1.252831   -1.728741   -0.167095
O       0.453013   -2.801794   -0.779381
C      -0.060145   -1.934663   -1.730361
O      -0.806983   -2.200950   -2.614998
C       0.690856   -0.720089   -1.170674
H       0.968623    1.995695   -0.174047
H      -0.737615    1.961278   -0.645182
H      -0.293017    1.906252    1.065372
H      -1.389490   -0.333433    1.623053
H      -1.456876   -1.628705    0.347159
H       1.077338   -0.817937    1.967814
H       2.302179   -2.005490   -0.095922
H       1.306305   -0.137353   -1.852706
