22

C      -0.081880    1.515548    0.038091
C       0.138666    0.016292    0.042635
C       1.447030   -0.687427   -0.274862
C       2.636188    0.060826    0.335499
C       1.974701   -0.035736    1.747930
C       0.786914   -0.779086    1.131086
N       0.108130   -1.804907    1.853073
C      -0.439499   -2.930921    1.108421
C       0.767762   -3.105465    1.962653
H       0.763139    2.064395    0.461886
H      -0.233619    1.883187   -0.982894
H      -0.970287    1.778944    0.622474
H      -0.701364   -0.532226   -0.382750
H       1.512535   -1.410007   -1.081007
H       3.567656   -0.506806    0.278022
H       2.826543    1.068457   -0.048740
H       2.545787   -0.676420    2.424023
H       1.747431    0.899918    2.268300
H      -1.411010   -3.287627    1.438083
H      -0.283200   -2.960298    0.031599
H       1.716788   -3.236950    1.446440
H       0.695036   -3.591538    2.930997
