15

C      -0.032931    1.551492   -0.069809
C       0.078528    0.025684   -0.046493
C       0.656572   -0.477242    1.294192
O      -0.135691   -0.079098    2.376497
C       0.794700   -1.989268    1.295273
O       0.216405   -2.691237    2.091280
C       1.679113   -2.572239    0.275313
N       2.386730   -3.011585   -0.526706
H       0.952883    2.020180    0.020945
H      -0.481453    1.889728   -1.007938
H      -0.653805    1.902201    0.757681
H      -0.910092   -0.428248   -0.183355
H       0.716645   -0.323118   -0.866515
H       1.677752   -0.068435    1.401568
H      -0.430022   -0.887832    2.821893
