19

C       0.010327    1.416462   -0.135165
N      -0.098982   -0.035995   -0.144116
C       0.568802   -0.692214   -0.972436
O       1.435621   -0.263612   -1.989191
C       1.500095   -1.623082   -2.520478
C       1.428169   -1.797942   -3.997053
C       2.152014   -2.483717   -1.494291
C       0.664244   -2.138466   -1.352595
N      -0.318005   -3.156304   -1.287757
H       0.590819    1.824326   -0.970803
H      -0.994960    1.850664   -0.155522
H       0.476893    1.736868    0.803393
H       2.346712   -1.450525   -4.482359
H       1.294387   -2.856681   -4.236009
H       0.586313   -1.236514   -4.413354
H       2.309969   -3.518107   -1.784856
H       2.887644   -2.065606   -0.814242
H      -0.315320   -3.604512   -0.376476
H      -1.245482   -2.766724   -1.425318
