20

C      -0.429066    1.121250    0.181755
O       0.506839    0.092056   -0.077871
C       1.029090   -0.471336    1.085660
C       0.222222   -1.644204    1.606370
C       1.522292   -1.866383    0.861931
C       2.033339   -2.550192    2.149517
C       2.723277   -3.880466    2.095726
C       1.926064   -1.718036    3.369644
N       0.700947   -2.370422    2.841998
H       0.029411    1.951332    0.740056
H      -0.771955    1.493153   -0.786241
H      -1.291353    0.752815    0.754797
H       1.538183    0.249776    1.724044
H      -0.800835   -1.802973    1.290029
H       1.689306   -2.254206   -0.134128
H       3.761315   -3.767883    1.760692
H       2.729011   -4.351460    3.082713
H       2.214915   -4.555837    1.398694
H       2.251272   -2.182551    4.296823
H       2.033600   -0.640346    3.367322
