20

O      -0.411211    1.511280   -0.491935
C      -0.039376    0.204334   -0.063099
C      -1.347715   -0.555618    0.181346
C      -1.137287   -1.882437    0.926709
C      -0.735146   -3.067431    0.030515
O       0.074375   -2.741440   -1.085071
C       1.207751   -1.931675   -0.827731
C       0.898535   -0.454014   -1.082584
H       0.391573    1.989865   -0.721886
H       0.490143    0.268570    0.905062
H      -1.986735    0.104059    0.777074
H      -1.860675   -0.718548   -0.773339
H      -0.387525   -1.731399    1.713473
H      -2.057071   -2.169313    1.448978
H      -0.246354   -3.841264    0.645793
H      -1.630150   -3.520367   -0.409239
H       1.593471   -2.092250    0.190655
H       1.989077   -2.261220   -1.522181
H       0.442361   -0.371385   -2.076169
H       1.844380    0.106664   -1.111093
