15

N      -0.011812    1.279740    0.003401
C       0.034712   -0.073039   -0.000720
O       1.042763   -0.745063   -0.012256
C      -1.366785   -0.698158    0.010562
N      -2.393439    0.049601    0.025768
O      -1.276712   -2.038246    0.002029
C      -2.505668   -2.770296    0.011420
C      -2.214118   -4.193050    0.000566
C      -2.013501   -5.375924   -0.008051
H       0.850303    1.796554    0.000567
H      -0.904756    1.744536    0.016868
H      -3.281044   -0.448568    0.032440
H      -3.086245   -2.506042    0.906674
H      -3.105539   -2.496464   -0.868100
H      -1.824371   -6.421210   -0.015907
