22

C      -0.190193    1.466338   -0.008809
C       0.026882   -0.049567   -0.023102
C       0.917352   -0.490714   -1.179097
O       0.663502   -0.509111    1.167749
C      -0.144604   -0.532868    2.318811
C       0.641576   -1.230828    3.423611
C      -0.160848   -1.290545    4.736722
C       0.573379   -1.950270    5.813766
N       1.163907   -2.473858    6.657723
H       0.768062    1.983828    0.103052
H      -0.652062    1.792734   -0.945874
H      -0.847131    1.778572    0.808102
H      -0.953063   -0.549478   -0.111806
H       1.900382   -0.015266   -1.102839
H       1.059257   -1.574275   -1.159725
H       0.471824   -0.211932   -2.138413
H      -0.421050    0.484016    2.643794
H      -1.087184   -1.073467    2.119976
H       0.901201   -2.242555    3.098364
H       1.581931   -0.695976    3.587282
H      -0.425878   -0.279789    5.069611
H      -1.105017   -1.827287    4.584755
