22

C       0.485331    1.852929    1.168190
N      -0.141400    0.540174    1.127070
C      -0.269285   -0.123369   -0.164051
C       0.656731   -0.664744    0.877713
C       2.156562   -0.601124    0.641179
C       0.245163   -1.832720    1.757692
C       0.395642   -1.601554    3.245736
C      -0.694562   -2.854024    1.272266
O       0.711926   -3.111200    1.290782
H       1.254852    2.020069    0.399454
H      -0.291520    2.612514    1.033705
H       0.941971    2.009495    2.150823
H      -1.230978   -0.584958   -0.370988
H       0.195986    0.352040   -1.028252
H       2.433095    0.185108   -0.063647
H       2.701768   -0.427537    1.575746
H       2.491945   -1.558557    0.234233
H      -0.239980   -0.768742    3.558140
H       0.116738   -2.498339    3.804226
H       1.432028   -1.353997    3.499501
H      -1.282520   -3.423116    1.992382
H      -1.137223   -2.770212    0.282123
