17

O      -0.076472    0.084259   -0.169555
C      -0.057336    1.252511    0.048314
O      -1.088305    2.045119    0.483865
C      -0.231437    3.230606    0.520571
C       0.974180    2.396533    0.010455
C       2.227941    2.207569    0.902008
C       3.402651    2.869752    0.136371
C       2.856130    3.030180   -1.258852
C       1.552005    2.770233   -1.329164
H      -0.607950    4.000804   -0.156069
H      -0.149810    3.617207    1.539187
H       2.086438    2.613686    1.906499
H       2.412678    1.134516    1.006621
H       3.679245    3.844768    0.559802
H       4.309764    2.256310    0.165621
H       3.468735    3.349935   -2.094631
H       0.937174    2.840825   -2.219320
