20

C       0.057908    1.533167   -0.272475
C       0.019646    0.050959    0.117691
O       0.482760   -0.101359    1.435118
C      -1.372908   -0.589117    0.010462
O      -1.869268   -1.128295    0.983174
N      -1.946694   -0.652432   -1.246199
C      -2.546419    0.440746   -2.002711
C      -3.377236   -0.688210   -1.466804
C      -3.924289   -1.776398   -2.356880
H       1.058111    1.919176   -0.059984
H      -0.148440    1.681257   -1.335547
H      -0.657830    2.110999    0.320572
H       0.666141   -0.508494   -0.579247
H      -0.203594   -0.620023    1.885618
H      -2.629306    1.408630   -1.517093
H      -2.292997    0.474919   -3.059450
H      -3.977613   -0.453604   -0.589393
H      -3.250758   -1.964889   -3.197444
H      -4.040656   -2.708827   -1.796174
H      -4.904823   -1.492301   -2.752284
