16

C      -0.064816    1.558846    0.014089
C       0.158486    0.064963   -0.067079
N       1.436644   -0.461380   -0.760787
C       2.196705   -0.134161    0.563607
C       0.846748   -0.785264    1.015375
O      -0.017101   -1.658731    1.854075
C      -0.157525   -2.496271    0.722990
O      -0.901282   -3.406151    0.599767
C       1.090068   -1.834491    0.014924
H      -0.163858    1.973311   -0.994272
H      -0.999924    1.753083    0.548772
H       0.729250    2.103769    0.528125
H      -0.719594   -0.420176   -0.507259
H       3.106253   -0.717562    0.702541
H       2.364328    0.931368    0.708926
H       1.968456   -2.475912    0.085892
