19

O      -0.334851    1.262023   -0.052798
C      -0.029633   -0.134946    0.035825
C       0.591509   -0.686519   -1.268968
C      -0.074607   -0.090703   -2.501441
O      -1.470247    0.014624   -2.411644
C       0.642992    0.965517   -3.309025
C       0.444385   -0.433518   -3.862340
C       0.808582   -0.434369    1.197016
C       1.531324   -0.665837    2.129324
H       0.496318    1.743059   -0.136311
H      -1.009030   -0.605772    0.168329
H       1.666922   -0.478561   -1.287505
H       0.477483   -1.777048   -1.253660
H      -1.635795    0.731437   -1.783994
H       0.032354    1.755789   -3.731026
H       1.643565    1.267064   -3.015666
H       1.305968   -1.088180   -3.938978
H      -0.297536   -0.560103   -4.641924
H       2.152150   -0.873181    2.965937
