21

C      -0.147905    1.573238   -0.253947
C      -0.004729    0.058604   -0.073011
C       0.949936   -0.553374   -1.168040
C       2.291900   -0.718656   -0.463224
C       2.093313   -0.709620    0.848410
C       2.655905   -0.355361    2.204369
C       1.284259    0.391299    2.460314
O       1.341472    1.779909    2.229802
C       0.676353   -0.414364    1.243363
H       0.826002    2.067182   -0.233292
H      -0.626794    1.786446   -1.216182
H      -0.754830    2.017553    0.538937
H      -1.000595   -0.389565   -0.156284
H       0.565182   -1.512440   -1.542993
H       1.026635    0.106852   -2.040525
H       3.237954   -0.761517   -0.990833
H       2.782566   -1.212429    2.874815
H       3.558563    0.262118    2.237184
H       0.815863    0.172864    3.429913
H       1.899532    2.168859    2.910917
H       0.154029   -1.285665    1.660107
