15

O      -0.071112    1.441313   -0.381082
C      -0.030897    0.208896    0.313190
C      -1.363068   -0.498885    0.220585
N      -1.647262   -1.106101   -1.081407
C      -1.487508   -1.990403    0.099483
C      -0.357815   -2.871919    0.117133
C       0.572992   -3.642102    0.163738
C       1.627539   -4.506509    0.212294
N       2.524958   -5.243366    0.255842
H      -0.229878    1.230065   -1.308294
H       0.761952   -0.449823   -0.066552
H       0.198061    0.446204    1.356838
H      -2.184833   -0.003061    0.734127
H      -2.634825   -1.036347   -1.313177
H      -2.389190   -2.425452    0.525264
