18

C      -0.067253    1.538942   -0.009190
C      -0.025016   -0.001303   -0.017889
C      -1.450459   -0.586194   -0.015360
C       0.784241   -0.524349   -1.189710
N       0.498890   -0.336045   -2.402262
O       1.879469   -1.236889   -0.762874
C       1.960867   -1.293663    0.658744
C       0.758609   -0.514548    1.188397
O       0.494148   -0.346845    2.348679
H       0.938137    1.970802   -0.011519
H      -0.589478    1.891541   -0.901489
H      -0.589990    1.887268    0.885526
H      -1.982075   -0.247563   -0.907521
H      -1.438296   -1.680318   -0.022420
H      -1.982829   -0.253126    0.879484
H       1.185045   -0.780364   -3.014554
H       1.931821   -2.335517    0.997420
H       2.899874   -0.844468    1.001542
