19

C       0.123570    1.475249    0.146909
C      -0.115135   -0.011576   -0.158625
C       0.655896   -0.486452   -1.348481
N       0.068374   -0.947239   -2.438255
N       1.134702   -1.236605   -3.253198
C       0.943591   -1.758676   -4.584793
C       2.281381   -0.954309   -2.597751
N       3.536458   -1.085173   -3.171562
N       2.025292   -0.474377   -1.394213
H       1.188045    1.667986    0.305185
H      -0.213363    2.104167   -0.683145
H      -0.420422    1.778947    1.046533
H       0.177815   -0.609247    0.713253
H      -1.176292   -0.202592   -0.341935
H       1.763144   -1.421826   -5.225238
H       0.903602   -2.854479   -4.594431
H       0.001229   -1.371288   -4.973871
H       3.699184   -1.969998   -3.634128
H       4.257041   -0.901027   -2.486006
