21

C       0.005425    1.682728    0.336305
C      -0.051118    0.197718    0.037979
C       0.933417   -0.385417   -0.960436
C       1.067784   -0.685215    0.515308
O       2.083110   -0.080539    1.265782
C      -1.448707   -0.377721    0.081070
C      -2.404436   -0.089503   -1.103393
C      -2.512577   -1.622112   -1.199954
O      -1.501031   -1.801525   -0.184909
H       1.039349    2.023851    0.405039
H      -0.502157    2.262087   -0.443388
H      -0.481105    1.908804    1.292485
H       0.603018   -1.191722   -1.605992
H       1.655864    0.298680   -1.393415
H       0.795162   -1.690254    0.832644
H       2.911365   -0.518021    1.043701
H      -1.899265   -0.157640    1.060888
H      -3.322157    0.451342   -0.869489
H      -1.910195    0.379809   -1.956233
H      -3.477555   -2.039968   -0.885435
H      -2.221836   -2.079807   -2.152395
