20

C       0.102605    1.451377   -0.279944
N      -0.014864    0.054905    0.116371
C      -1.315191   -0.500847    0.507269
C      -0.957582   -2.013601    0.524267
C       0.516191   -1.986275    1.057318
C       0.752148   -0.462516    1.254999
C      -0.091928   -0.108211    2.495754
O      -0.856331    1.097303    2.389392
C      -1.471950   -0.133807    1.996620
H       1.141895    1.639893   -0.572452
H      -0.515653    1.609428   -1.171005
H      -0.186025    2.182599    0.482040
H      -2.127896   -0.210577   -0.159659
H      -1.627379   -2.593703    1.165984
H      -1.010050   -2.428348   -0.483962
H       0.639289   -2.551669    1.985825
H       1.214853   -2.387107    0.320772
H       1.793366   -0.137879    1.258619
H       0.195795   -0.412503    3.498591
H      -2.324280   -0.459247    2.587113
