17

O       0.108369    1.348563    0.113185
C       0.074598   -0.033102    0.089420
C       0.886828   -0.772456    1.124811
N       0.586047   -2.169071    0.764195
C       0.372788   -2.198186   -0.705436
C      -0.796095   -2.185541    0.220546
C      -1.317735   -0.756562   -0.040794
N      -1.200629   -0.506167   -1.513871
C       0.256718   -0.773593   -1.288060
H      -0.461724    1.643413   -0.610471
H       1.961203   -0.581819    1.042184
H       0.563176   -0.566699    2.149685
H       0.743013   -3.055191   -1.254927
H      -1.427044   -3.031715    0.464180
H      -2.221105   -0.415913    0.465100
H      -1.664155   -1.210411   -2.089375
H       0.960319   -0.450327   -2.055192
