14

N       0.031531    1.391396    0.144535
C      -0.042402    0.025966    0.052453
C      -1.190869   -0.705945    0.033200
C      -1.189452   -2.145993   -0.003056
N      -2.236586   -2.866804   -0.017706
O       0.076753   -2.768493   -0.024484
C       1.212053   -2.041857   -0.019230
C       1.204690   -0.705118    0.019181
F       2.346346    0.002677    0.013835
H       0.903910    1.817471   -0.122460
H      -0.794833    1.920172   -0.082060
H      -2.165502   -0.235557    0.052210
H      -1.993173   -3.856128   -0.045056
H       2.112682   -2.640978   -0.050538
