15

O       0.000058    1.366674   -0.276769
C      -0.011925   -0.021801    0.031432
C      -1.469998   -0.440038    0.124721
N      -2.132798   -0.125486   -1.131700
C      -3.406645   -0.519777   -1.359045
N      -4.082585   -1.407206   -0.671444
O      -5.278880   -1.483555   -1.347193
N      -5.257946   -0.614921   -2.406921
N      -4.144497   -0.027985   -2.429946
H       0.899955    1.628946   -0.489867
H       0.488937   -0.606755   -0.753222
H       0.485892   -0.229125    0.989392
H      -1.539184   -1.516234    0.307312
H      -1.950110    0.072186    0.971131
H      -1.871936    0.763421   -1.534442
