19

C       0.005403    1.555007   -0.344285
C      -0.132931    0.081645    0.037101
O       0.253993   -0.752957   -1.066303
C       1.254770   -1.697951   -0.682197
C       0.777659   -3.134287   -0.905968
C       2.516816   -1.402040   -1.509296
O       3.375075   -2.205353   -1.760178
C       1.543157   -1.361614    0.765935
C       0.758838   -0.367540    1.163732
H       1.049653    1.802292   -0.556470
H      -0.592727    1.768941   -1.234228
H      -0.348033    2.196511    0.469852
H      -1.190707   -0.119539    0.274851
H       0.433902   -3.254493   -1.936974
H       1.601259   -3.831603   -0.735324
H      -0.047041   -3.369448   -0.228963
H       2.570633   -0.340846   -1.840747
H       2.288513   -1.891553    1.344471
H       0.721885    0.072175    2.152777
