17

N      -0.132897    1.247993    0.182429
C      -0.094432   -0.006127    0.175118
O       0.986620   -0.878385    0.235857
C       0.098056   -1.993826   -0.057779
C      -0.867920   -2.150992    1.056534
C      -1.117289   -1.081606   -0.020308
C      -2.355921   -0.985887   -0.831922
C      -3.217234    0.223366   -0.744945
N      -2.447455   -0.057566   -1.969802
H       0.800166    1.652339    0.277263
H       0.442249   -2.725603   -0.775016
H      -1.544318   -2.998163    0.984105
H      -0.580202   -1.870848    2.065070
H      -2.835815   -1.945594   -1.015290
H      -4.294549    0.123158   -0.842990
H      -2.876476    1.032517   -0.106294
H      -1.628332    0.547637   -1.980224
