16

O       0.121005   -0.144289    0.012790
C       0.099027    1.051501    0.148713
C       1.297764    1.953881    0.013816
C       1.030150    3.282121   -0.740955
O       1.187614    4.064700    0.460533
C       1.517714    2.894734    1.207517
C       1.148145    2.741712    2.646526
C       2.605801    2.886605    2.227533
H      -0.844704    1.588206    0.402370
H       2.166225    1.378464   -0.308076
H       1.780099    3.531049   -1.499144
H       0.027027    3.391694   -1.169843
H       0.677314    3.595588    3.121613
H       0.803483    1.775765    3.001508
H       3.254456    2.019082    2.291732
H       3.089618    3.836862    2.426355
