14

N       0.028443   -1.169539    0.115610
C       0.011760   -0.014879    0.150940
C       0.010650    1.444900    0.189496
C       1.367966    2.037566   -0.255282
C       1.369741    3.525825   -0.137411
N       1.631503    4.313191   -1.147110
O       1.533840    5.597001   -0.594639
C       1.216434    5.424009    0.687290
N       1.096326    4.186351    1.046023
H      -0.792576    1.814291   -0.457179
H      -0.218254    1.776750    1.207192
H       2.160444    1.628782    0.380034
H       1.590834    1.759088   -1.287116
H       1.093882    6.312377    1.289541
