18

C       0.124957    1.490461   -0.094141
C       0.012747    0.000431    0.043008
C      -1.096646   -0.688778   -0.245412
C      -1.142869   -2.160174   -0.065574
C      -0.717546   -3.122872   -1.146488
N       0.138678   -2.846150   -0.004420
C       1.313859   -2.098270   -0.164637
O       2.258895   -2.487707   -0.806873
C       1.248422   -0.745636    0.533199
H       0.908034    1.759941   -0.813898
H      -0.815294    1.939334   -0.424702
H       0.409545    1.950194    0.860952
H      -2.001101   -0.183916   -0.573589
H      -1.884737   -2.530467    0.643580
H      -1.155463   -4.116567   -1.184893
H      -0.407933   -2.711022   -2.102966
H       2.166118   -0.200515    0.302486
H       1.204998   -0.877687    1.622477
