17

O      -0.100296    1.511525    0.149997
C      -0.088490    0.125440    0.401816
C      -1.374813   -0.528155   -0.122025
O      -1.547474   -0.169323   -1.498173
C      -1.411147   -2.015676    0.070003
C      -1.865301   -2.929944   -0.831756
O      -1.751334   -4.192366   -0.341050
C      -1.218218   -4.083904    0.902574
C      -0.986577   -2.782878    1.211932
H      -0.456397    1.605622   -0.743456
H       0.779513   -0.371742   -0.067809
H       0.000759   -0.012593    1.484585
H      -2.221768   -0.050574    0.386484
H      -0.894380   -0.670888   -2.002800
H      -2.298660   -2.840381   -1.813223
H      -1.063705   -5.011077    1.429308
H      -0.569778   -2.410549    2.134518
