14

C       0.010703    1.519202    0.088633
O       1.463519    1.516754    0.054887
C       1.501040    0.084920   -0.023430
C       1.568348   -0.700556    1.315811
N       0.760412    0.046257    2.306259
C       0.076293   -0.821732    1.327499
C      -0.038535   -0.024980    0.004802
H      -0.375592    1.966816    1.007878
H      -0.399044    2.031834   -0.789750
H       2.133691   -0.299161   -0.828010
H       2.336647   -1.391450    1.642168
H       0.818229   -0.469810    3.183244
H      -0.555871   -1.638706    1.652701
H      -0.606985   -0.493635   -0.795922
