20

C       0.002112    1.594501   -0.000376
C       0.080761    0.065300    0.009210
N       0.781309   -0.409893   -1.168264
C       1.792190   -1.186298   -1.086586
C       2.360328   -1.609583    0.191589
N       2.767653   -1.900285    1.234503
N       2.396635   -1.723967   -2.200202
C       1.877203   -1.325366   -3.496971
C       3.764078   -2.213261   -2.174626
H       1.001507    2.034826    0.070379
H      -0.459980    1.949906   -0.925643
H      -0.590943    1.951797    0.847100
H       0.532469   -0.279729    0.950834
H      -0.938597   -0.342793   -0.022816
H       2.233684   -0.329298   -3.796694
H       2.201767   -2.055155   -4.243417
H       0.788524   -1.291578   -3.457927
H       4.026239   -2.562379   -1.175212
H       3.862323   -3.054200   -2.868228
H       4.486239   -1.438003   -2.471330
