16

C      -0.432877    0.795170    1.033185
N       0.205278    0.281595   -0.175547
C       1.306404   -0.632988    0.080188
C       0.938454   -1.970107    0.677485
N      -0.270497   -2.497989    0.549086
N      -0.135430   -3.687658    1.185768
C       1.117893   -3.821842    1.659345
N       1.829586   -2.754545    1.358626
H       0.293006    1.392177    1.597331
H      -1.256516    1.457362    0.750103
H      -0.831372    0.019077    1.705843
H      -0.489049   -0.193211   -0.743241
H       1.839006   -0.813328   -0.863147
H       2.029508   -0.151011    0.747356
H      -0.921655   -4.311856    1.258982
H       1.455207   -4.690701    2.204878
