13

O      -0.022929    0.001272   -0.113002
C      -0.031339    1.199427   -0.039551
C      -1.240479    2.117527   -0.011372
N      -1.276260    2.938627    1.228862
C      -0.723060    3.503914   -0.033939
C       0.766142    3.406384   -0.053175
C       1.167669    2.121403   -0.009016
C       2.502930    1.645884    0.059884
N       3.586812    1.243204    0.112177
H      -2.161860    1.802954   -0.485098
H      -2.231737    3.275671    1.351609
H      -1.237143    4.319777   -0.526673
H       1.423070    4.267161   -0.056072
