17

C      -0.208489    1.405977    0.137174
N      -0.163116   -0.034036    0.318717
C       0.942637   -0.671930    0.768267
O       1.987733   -0.123670    1.065108
C       0.844388   -2.210185    0.914937
C       1.269521   -2.627321    2.352254
O       1.386881   -4.021598    2.488264
C      -0.464407   -2.768767    0.590945
N      -1.517591   -3.192018    0.365591
H       0.771955    1.802970    0.400778
H      -0.434010    1.661954   -0.903032
H      -0.966310    1.860043    0.784152
H      -0.984208   -0.577522    0.102785
H       1.581365   -2.637969    0.226078
H       2.254209   -2.192758    2.528215
H       0.565926   -2.194190    3.076999
H       0.504040   -4.407453    2.480626
