14

N       0.150100    1.441000    0.080445
C       0.011538    0.052652    0.003744
C      -1.092350   -0.726429    0.015574
N      -2.432346   -0.312391    0.009614
N      -0.633704   -2.071764   -0.012770
C       0.747617   -2.128942    0.005006
O       1.473429   -3.102665    0.053672
N       1.125333   -0.783452   -0.043873
H       0.637663    1.825577   -0.724236
H      -0.771643    1.862171    0.129433
H      -2.944644   -0.591442    0.840974
H      -2.948018   -0.638871   -0.802305
H      -1.194826   -2.891501    0.138487
H       2.072046   -0.498364    0.139220
