10

F      -0.026975    0.063164    0.003660
C      -0.019924    1.382248    0.010928
N      -1.195542    1.971405    0.029887
C      -1.146497    3.295592    0.036581
F      -2.315793    3.897257    0.055553
N      -0.091038    4.084815    0.026884
C       1.085229    3.444292    0.007622
C       1.193892    2.062429   -0.001512
H       1.972074    4.071596   -0.000737
H       2.141063    1.542205   -0.017059
