20

C      -0.076026    1.588659    0.013346
C      -0.085091    0.072808    0.065219
C      -1.339600   -0.538000   -0.526075
O      -1.358639   -0.216223   -1.913290
N       1.200379   -0.584489   -0.213781
C       0.635813   -0.682274    1.158421
C       1.421670    0.033476    2.246197
C       0.112728   -1.958368    1.588456
C      -0.272006   -3.022618    1.999254
H       0.905909    1.995977    0.252864
H      -0.338603    1.908858   -0.998586
H      -0.813481    2.008527    0.706547
H      -1.342698   -1.624056   -0.369942
H      -2.221439   -0.124207   -0.011111
H      -2.190374   -0.529559   -2.279960
H       1.048416   -1.455836   -0.717742
H       1.875880    0.947548    1.864081
H       0.773214    0.282601    3.091793
H       2.221615   -0.616636    2.612435
H      -0.620518   -3.962847    2.348800
