19

C      -0.251959    1.327829    0.022533
C      -0.030085   -0.184369   -0.022593
C       0.572311   -0.644266   -1.342074
O       0.950937    0.100847   -2.211375
C       0.865202   -0.638379    1.141628
O       0.308084   -0.285499    2.430472
C       0.260493   -1.662158    2.855831
C       0.882159   -2.139844    1.525160
O       0.070487   -2.934298    0.690276
H       0.687763    1.862956   -0.141707
H      -0.946523    1.639462   -0.761341
H      -0.657521    1.617488    0.994147
H      -0.982841   -0.720499    0.083373
H       0.645681   -1.745907   -1.455676
H       1.865279   -0.197982    1.028019
H       0.854267   -1.832355    3.761891
H      -0.766004   -2.015378    3.013621
H       1.889202   -2.561682    1.620164
H       0.159023   -3.854412    0.956675
