16

C      -0.006623    1.498275   -0.100171
N      -0.003734    0.052046   -0.020130
C      -0.035451   -0.821160   -1.059791
N      -0.021505   -2.076324   -0.660041
C       0.021726   -2.002536    0.706171
N       0.046571   -3.187819    1.442018
C       0.087681   -3.275639    2.799683
O       0.109535   -2.328697    3.559025
C       0.033559   -0.699810    1.140331
H       0.900348    1.914756    0.348488
H      -0.046348    1.795217   -1.149813
H      -0.877398    1.914308    0.415485
H      -0.068174   -0.487450   -2.086266
H       0.030292   -4.033430    0.891762
H       0.099353   -4.328408    3.140094
H       0.063697   -0.270977    2.124140
