13

N      -0.094568    1.316122   -0.265262
C       0.009531    0.083723    0.019494
N      -1.096214   -0.635375    0.420822
C      -1.130605   -1.968148    0.758286
N      -2.194325   -2.539678    1.114842
O       0.079887   -2.630915    0.678141
C       1.256464   -2.040736    0.294663
O       2.268322   -2.674365    0.247605
N       1.162409   -0.702635   -0.017900
H       0.792507    1.725817   -0.545930
H      -1.969523   -0.133287    0.471691
H      -2.028766   -3.520799    1.324529
H       2.029677   -0.272372   -0.299068
