15

C       0.021343    1.573709    0.047537
C       0.006299    0.073629    0.027262
C      -1.138505   -0.652988    0.072168
N      -2.408272   -0.142063    0.169270
N      -1.134966   -2.056710    0.069835
N      -0.096633   -2.720479    0.018091
O       1.146219   -2.045845   -0.041345
C       1.253072   -0.655284   -0.044818
N       2.399251   -0.110632   -0.108027
H       1.033444    1.928790    0.240520
H      -0.301564    1.993414   -0.914791
H      -0.650438    1.963774    0.821069
H      -2.560654    0.795775   -0.163572
H      -3.148298   -0.796720   -0.032062
H       3.135664   -0.814740   -0.147680
