20

C       0.969962   -0.396483    0.767552
C       0.107354   -0.065915   -0.455275
N       0.671304   -0.244755   -1.783197
C       1.850169   -0.650942   -1.924516
O       2.362147   -0.789697   -3.177752
C       3.671595   -1.341375   -3.255591
C       3.673714   -2.835197   -3.053656
C       4.836869   -3.522880   -2.480982
O       3.668365   -3.287121   -1.694937
H       1.284963   -1.445317    0.773003
H       1.868307    0.228620    0.815937
H       0.393447   -0.217168    1.680185
H      -0.812740   -0.664411   -0.418655
H      -0.229188    0.977578   -0.389680
H       2.554057   -0.918005   -1.129717
H       4.030785   -1.096750   -4.259785
H       4.341168   -0.871041   -2.522822
H       3.006356   -3.391496   -3.711999
H       5.027169   -4.562766   -2.740148
H       5.716966   -2.948121   -2.194506
