14

C       0.001833    1.519459    0.076149
C       0.017267    0.032042   -0.040424
C      -0.030849   -0.839764   -1.118323
C      -0.116100   -0.469792   -2.529776
O      -0.157253   -1.239684   -3.460934
N       0.013096   -2.154948   -0.682914
C       0.085616   -2.085542    0.614740
N       0.091586   -0.784552    1.058155
H       0.909290    1.894027    0.564265
H      -0.059651    1.982819   -0.909217
H      -0.856665    1.868118    0.662235
H      -0.142200    0.631257   -2.702489
H       0.136671   -2.920833    1.298008
H       0.140823   -0.479287    2.017082
