19

C       0.061682   -1.260625   -0.135667
C      -0.003395   -0.058081   -0.077526
C      -0.018723    1.363714   -0.006854
C      -1.178194    2.039805   -0.006275
C      -1.310812    3.540435    0.062251
C      -0.518806    4.270251    1.127614
C       0.640855    3.947640    1.700522
C       1.548326    2.777701    1.423575
C       1.324515    2.069655    0.078541
H       0.099851   -2.320200   -0.188331
H      -2.102818    1.474550   -0.076955
H      -1.069123    3.973376   -0.924314
H      -2.368350    3.783316    0.211630
H      -0.989865    5.194881    1.456359
H       1.009213    4.622673    2.471775
H       2.585120    3.138336    1.459609
H       1.468657    2.045176    2.239786
H       2.125120    1.344569   -0.085815
H       1.396302    2.810583   -0.728012
