17

O      -0.033929    1.385344    0.001409
C      -0.043789    0.002353   -0.023813
C      -0.459967   -0.736268    1.209495
O      -1.028097    0.107346    2.179430
C      -2.444387    0.192878    1.924382
C      -2.605753    0.070890    0.399371
C      -1.386269   -0.771105   -0.005604
C      -1.533989   -1.935274   -0.817570
C      -1.644478   -2.913355   -1.510704
H      -0.208890    1.634674    0.921125
H       0.730034   -0.424317   -0.654190
H       0.054048   -1.613365    1.588878
H      -2.956436   -0.629322    2.442488
H      -2.793680    1.142256    2.337996
H      -3.536047   -0.426235    0.121005
H      -2.570880    1.050918   -0.084931
H      -1.745863   -3.774167   -2.123665
