17

C      -0.098595    1.475230    0.077829
C       1.314196    0.886922    0.024967
C       2.300823    0.355577    1.010289
C       2.175214   -0.920437    1.403945
C       0.868533   -1.658241    1.099882
O      -0.150628   -0.657780    1.169819
C       0.065316    0.006320   -0.060696
C       0.193694   -1.103953   -1.057898
C       0.742626   -2.113141   -0.370032
H      -0.527611    1.791593    1.022496
H      -0.372396    2.083569   -0.777498
H       1.779228    1.093292   -0.939595
H       3.190249    0.934305    1.249112
H       2.938027   -1.418862    1.993238
H       0.657686   -2.439913    1.833370
H       0.023361   -1.033665   -2.123374
H       1.099208   -3.059670   -0.751940
