19

N      -0.113634    0.708141   -2.236411
C      -0.126068    0.214490   -1.061427
N      -1.348135    0.362830   -0.375441
C      -1.765929   -0.142656    0.828630
O      -1.123737   -0.820091    1.598506
C       0.997642   -0.471976   -0.335317
C       2.380015   -0.617975   -1.024053
C       3.042566   -0.353181    0.355534
C       1.708704    0.274166    0.839384
H       0.795004    0.568299   -2.673732
H      -2.031488    0.874967   -0.918272
H      -2.813909    0.154906    1.027627
H       0.642704   -1.436056    0.035193
H       2.593742   -1.560502   -1.532640
H       2.582747    0.207129   -1.714514
H       3.264007   -1.284542    0.883671
H       3.933840    0.277156    0.370631
H       1.695042    1.357750    0.687510
H       1.353658    0.044644    1.843103
