27

C       0.153562    1.513525   -0.178670
C       0.176093   -0.007452    0.005219
C       0.670460   -0.492346    1.382483
C      -0.264995   -0.042377    2.514675
C       0.861885   -2.021139    1.365306
C       1.564814   -2.610331    2.596777
C       1.815109   -4.099654    2.473952
C       3.036414   -4.614900    1.753908
C       2.921341   -4.762829    3.252642
H       1.142413    1.948310    0.007554
H      -0.136274    1.778351   -1.200566
H      -0.555168    2.001739    0.497082
H      -0.828983   -0.413842   -0.176051
H       0.820980   -0.445202   -0.767567
H       1.657623   -0.036396    1.557308
H       0.109392   -0.345462    3.496489
H      -0.379832    1.045031    2.535790
H      -1.263282   -0.480187    2.389307
H      -0.119031   -2.503548    1.242891
H       1.443900   -2.293552    0.475281
H       2.524803   -2.096743    2.747702
H       0.972208   -2.420190    3.500257
H       0.911846   -4.692219    2.344700
H       2.945199   -5.503681    1.139181
H       3.743462   -3.884718    1.372299
H       3.551540   -4.132628    3.872293
H       2.748840   -5.752439    3.661590
