18

N      -0.078128   -1.173166   -0.152645
C      -0.047901   -0.020484   -0.070192
C      -0.001757    1.443427    0.038101
C      -0.717509    1.920506    1.297347
C      -0.048645    2.679853    2.162968
C       1.392299    3.030232    1.863398
C       1.476456    3.476458    0.369529
C       1.462109    1.959552    0.026867
C       2.125858    1.727431    1.413757
H      -0.521966    1.838658   -0.846703
H      -1.749510    1.620678    1.441406
H      -0.518895    3.053582    3.067044
H       1.849392    3.657541    2.628736
H       0.672448    4.108003   -0.016567
H       2.445702    3.919657    0.127418
H       1.984047    1.617235   -0.868281
H       3.207590    1.869328    1.354948
H       1.899593    0.803560    1.950035
