16

C      -0.360198    1.380817    0.010544
O       0.998534    0.913149    0.000440
C      -0.043557   -0.044635    0.035007
C      -0.173724   -1.104647    1.142147
C      -0.458533   -2.172495    0.047871
C      -1.909380   -2.220391   -0.465553
O      -1.658748   -1.187303   -1.450578
C      -0.274349   -1.091620   -1.061371
H      -0.672559    1.878569    0.927641
H      -0.705592    1.840701   -0.913874
H       0.778991   -1.264256    1.654181
H      -0.956603   -0.950776    1.890231
H       0.095913   -3.107551    0.092944
H      -2.195993   -3.161703   -0.949669
H      -2.689346   -1.934496    0.251723
H       0.419856   -1.122550   -1.905099
