23

C       0.054935    1.550156   -0.084905
C       0.006072    0.020471   -0.052406
C      -1.421237   -0.534937    0.005024
C      -1.471356   -2.065605    0.037625
C      -2.892712   -2.606019    0.094431
O      -2.841973   -4.020659    0.121544
C      -4.104036   -4.627869    0.174296
C      -3.907319   -6.133704    0.197754
O      -4.811323   -6.924608    0.244008
H       1.085566    1.915958   -0.125674
H      -0.473111    1.945040   -0.960062
H      -0.415922    1.980733    0.805917
H       0.514526   -0.382584   -0.938070
H       0.571248   -0.347172    0.814079
H      -1.930555   -0.131398    0.891398
H      -1.987301   -0.166881   -0.862165
H      -0.976014   -2.478370   -0.849672
H      -0.919343   -2.442809    0.907126
H      -3.414767   -2.229582    0.990845
H      -3.471895   -2.265621   -0.781060
H      -4.672540   -4.331840    1.073123
H      -4.729480   -4.367008   -0.697227
H      -2.838813   -6.441715    0.167807
