15

C      -0.033251    1.408938    0.010575
O       0.010041   -0.002802    0.003076
C      -1.261516   -0.592296    0.010546
C      -1.108029   -2.088246    0.002226
C       0.124201   -2.739180   -0.009763
N       0.178176   -4.062890   -0.016355
N      -0.965762   -4.745025   -0.011309
N      -2.129185   -4.134021   -0.000084
N      -2.223516   -2.808683    0.006806
H       0.999320    1.762850    0.003918
H      -0.553673    1.800667   -0.875917
H      -0.539071    1.791628    0.909383
H      -1.844289   -0.299631    0.900343
H      -1.858623   -0.291253   -0.866850
H       1.062253   -2.196944   -0.014048
