19

C      -0.047492    1.588881    0.184439
C      -0.038178    0.059717    0.015781
C       0.878808   -0.613951    1.051193
C      -1.433017   -0.501118    0.078818
N      -1.926003   -1.113601   -0.971792
O      -3.231444   -1.511681   -0.589227
C      -3.449616   -1.115205    0.669388
N      -4.702976   -1.371541    1.172368
C      -2.353316   -0.467355    1.165360
H       0.966508    1.990234    0.087930
H      -0.677754    2.065592   -0.571607
H      -0.428327    1.876486    1.170484
H       0.339256   -0.175475   -0.985483
H       0.538694   -0.412151    2.072861
H       0.902345   -1.698555    0.912056
H       1.901782   -0.234898    0.959435
H      -5.182503   -2.133073    0.713201
H      -4.750764   -1.430442    2.178192
H      -2.227316   -0.031806    2.141867
