17

C       0.100378   -1.162308   -0.045365
C       0.077181    0.037965   -0.032775
C       0.003559    1.489161   -0.022078
O       1.334440    2.019534    0.114469
C       1.397421    3.354855    0.110219
N       0.412697    4.159302   -0.010479
C       1.002682    5.505094    0.065827
C       2.539157    5.301645   -0.085808
N       2.666009    3.887284    0.290266
H       0.123186   -2.224055   -0.055105
H      -0.444788    1.874069   -0.944768
H      -0.614660    1.852078    0.806457
H       0.591744    6.158709   -0.708811
H       0.761789    5.958835    1.036310
H       2.866206    5.474673   -1.120658
H       3.126299    5.946218    0.573222
H       3.436417    3.352304   -0.084550
