25

C       0.382148    1.418351    0.263829
C      -0.053626   -0.054549    0.155117
C       0.305488   -0.793683    1.458516
C      -1.581888   -0.108391   -0.037491
C       0.593388   -0.731919   -1.082542
C       2.114909   -0.687151   -1.235825
O       2.820382   -1.425017   -0.224746
C       2.572079   -1.201789   -2.606867
O       3.979251   -1.226063   -2.691903
H       1.448456    1.513721    0.489835
H       0.182256    1.964642   -0.665239
H      -0.167301    1.920879    1.067083
H      -0.201605   -0.330819    2.312431
H      -0.016571   -1.841394    1.417185
H       1.380823   -0.777374    1.645538
H      -1.892026    0.440517   -0.933670
H      -1.932789   -1.141531   -0.139950
H      -2.098325    0.334422    0.820993
H       0.272559   -1.784777   -1.116444
H       0.169260   -0.266865   -1.983326
H       2.485415    0.337275   -1.124922
H       2.408260   -2.294737   -0.157818
H       2.138978   -2.205558   -2.777547
H       2.201970   -0.547170   -3.403685
H       4.276501   -1.535233   -1.825499
