20

C      -0.877026    1.216680   -0.049155
C      -0.071527   -0.076021   -0.079173
C       1.233987   -0.070775   -0.924447
C       2.035876   -0.583627    0.299914
O       3.150469    0.240470    0.655996
C       2.876324    1.365653    1.361624
N       1.880762    1.621190    2.096884
C       0.912577    0.550698    2.322253
C       0.765679   -0.472611    1.190951
H      -0.257315    2.068987    0.248828
H      -1.289821    1.432084   -1.040914
H      -1.717368    1.152040    0.650767
H      -0.727780   -0.902216   -0.368896
H       1.252039   -0.716424   -1.805329
H       1.552951    0.932022   -1.222393
H       2.445362   -1.589263    0.195964
H       3.679916    2.090983    1.241411
H       1.227659    0.025033    3.234145
H      -0.054787    1.006051    2.558097
H       0.455158   -1.431463    1.614777
