19

O       0.070272    1.474848   -0.109051
C       0.054747    0.059467    0.105705
C      -1.382265   -0.457329    0.309670
C      -1.424893   -1.831504    0.900488
C      -1.459679   -2.975912    0.203433
C      -1.409110   -3.101267   -1.241193
C      -0.621042   -2.444253   -2.119733
C       0.496233   -1.524804   -1.927618
C       0.819513   -0.591508   -1.013735
H      -0.289493    1.631134   -0.989884
H       0.605799   -0.066731    1.045059
H      -1.882352    0.254633    0.973025
H      -1.900253   -0.440199   -0.655973
H      -1.449617   -1.890803    1.986707
H      -1.588493   -3.908297    0.751246
H      -2.049745   -3.875580   -1.661279
H      -0.733779   -2.746878   -3.159878
H       1.236164   -1.639328   -2.720867
H       1.774482   -0.091131   -1.168555
