19

C      -0.047763    1.544418    0.040878
C       1.514280    1.562570   -0.025118
C       2.107227    1.785573   -1.425279
C       1.786699    0.513295   -2.204312
O       0.359373    0.380911   -2.478040
C       0.210272   -0.601679   -1.434973
C      -0.028588    0.000464   -0.006248
C       1.525156    0.007055    0.212424
C       1.735360   -0.651766   -1.178989
H      -0.414179    1.907273    1.004847
H      -0.580931    2.054900   -0.764287
H       1.995909    2.184452    0.731694
H       1.709961    2.676190   -1.923629
H       3.198000    1.895230   -1.361279
H       2.368398    0.387460   -3.122513
H      -0.416335   -1.441786   -1.743369
H      -0.721902   -0.556528    0.626084
H       2.018446   -0.401843    1.092880
H       2.363848   -1.530745   -1.307370
