23

C      -0.050954    1.537584   -0.035166
C       0.047772    0.007871    0.018857
C       0.687378   -0.541434   -1.265392
O       0.858273   -1.941467   -1.207817
C       1.870755   -2.310129   -0.286030
C       1.700515   -1.686721    1.096868
C       2.260461   -0.310990    1.387061
C       0.768052   -0.502568    1.268606
C      -0.050253   -0.439335    2.544599
H       0.943632    1.996105   -0.058593
H      -0.592061    1.864116   -0.930221
H      -0.580859    1.938703    0.833479
H      -0.970049   -0.405032    0.052089
H       0.033942   -0.340934   -2.120353
H       1.652334   -0.041352   -1.465650
H       1.820121   -3.400160   -0.214694
H       2.858630   -2.050422   -0.704023
H       1.722866   -2.396524    1.918448
H       2.674167   -0.116618    2.371240
H       2.790941    0.188591    0.581357
H      -0.331628    0.589921    2.794781
H      -0.973564   -1.022904    2.449418
H       0.511978   -0.840453    3.393904
