14

C       0.004689    1.520307   -0.004041
C      -0.021978    0.016773    0.005405
C      -1.162527   -0.705906   -0.152185
C      -1.146032   -2.158668   -0.137027
O      -2.096406   -2.909867   -0.267049
N       0.146956   -2.671518    0.053381
N       1.291117   -2.000822    0.211973
C       1.208539   -0.702379    0.188659
H       0.654851    1.893687   -0.803274
H      -0.994087    1.936154   -0.151298
H       0.404329    1.909006    0.939408
H      -2.129872   -0.237573   -0.295362
H       0.229794   -3.679674    0.074181
H       2.146177   -0.172201    0.318789
