22

C      -0.058816    1.518324   -0.217067
C       0.138410    0.040270   -0.074697
N      -0.864715   -0.803962    0.629568
C       0.552763   -0.799637    1.083019
C       1.279161   -1.789828    0.173226
C       0.838055   -0.930171   -1.056043
C       0.040458   -1.454217   -2.274190
C       0.846184   -0.481725   -3.180101
C       1.887481   -0.342751   -2.036028
H       0.864413    2.021400   -0.521933
H      -0.827675    1.749327   -0.964524
H      -0.377747    1.960231    0.733730
H      -1.377644   -0.184042    1.257925
H       0.803147   -0.512576    2.097987
H       2.365339   -1.782341    0.302705
H       0.910215   -2.818830    0.210107
H       0.275589   -2.501233   -2.489939
H      -1.045369   -1.345368   -2.228446
H       1.204622   -0.862123   -4.139442
H       0.307849    0.453139   -3.360469
H       2.289881    0.651502   -1.821386
H       2.729007   -1.030784   -2.166819
