19

C       0.079290    1.608479   -0.011245
C       0.119115    0.110154    0.013464
C       0.599067   -0.787559   -1.138170
C       1.215126   -1.789397   -0.102715
C       0.676437   -0.907557    1.011405
O       1.326091   -0.779505    2.215246
C      -0.834950   -0.749658    0.868100
C      -1.471085   -0.137485    1.994768
C      -1.940877    0.350490    2.992208
H       1.048095    2.016463   -0.319935
H      -0.677171    1.974310   -0.716249
H      -0.162512    2.015288    0.974329
H      -0.182651   -1.186992   -1.792680
H       1.359595   -0.303829   -1.755527
H       0.863585   -2.825954   -0.122506
H       2.307090   -1.784539   -0.129098
H       0.683839   -0.487161    2.877004
H      -1.417063   -1.533129    0.382135
H      -2.398275    0.794425    3.841659
