13

O      -0.058979   -0.086420    0.037762
C       0.006085    1.117929    0.007322
N      -1.198816    1.830659    0.137484
N      -1.616927    3.100099    0.163389
C      -0.841366    4.128078    0.051579
C       0.582110    4.232955   -0.120016
C       1.519858    3.265524   -0.213622
C       1.369611    1.813845   -0.168349
O       2.333268    1.085218   -0.269558
H      -1.969304    1.179711    0.241655
H      -1.385249    5.067633    0.098567
H       0.936454    5.259069   -0.181700
H       2.557033    3.560136   -0.342934
