21

C       0.044128    1.432255   -0.013796
C      -0.034884   -0.067151   -0.005477
O       0.968089   -0.672293   -0.811659
C       0.424953   -1.900151   -1.309207
C      -0.694524   -2.236566   -0.329995
C      -0.129961   -2.285794    1.125941
C      -0.458582   -0.801712    1.261277
C      -1.313946   -0.836390   -0.021078
C      -2.699401   -0.361746   -0.339441
H       1.027467    1.762462    0.335916
H      -0.105362    1.826247   -1.024108
H      -0.711931    1.867819    0.645490
H       0.042457   -1.764591   -2.333773
H       1.225878   -2.647153   -1.330400
H      -1.355885   -3.045586   -0.640526
H      -0.753322   -2.899734    1.781002
H       0.917520   -2.587734    1.237169
H      -0.647228   -0.265732    2.186515
H      -2.861004    0.661344    0.015498
H      -2.883531   -0.366637   -1.420792
H      -3.460623   -0.996992    0.128316
