14

C      -0.038386    1.533162    0.041896
C       0.034445    0.023525    0.019902
C       1.335094   -0.696238   -0.227891
C       0.709148   -0.716234    1.159496
O       1.265012    0.075677    2.165217
C       0.118509   -1.953948    1.623987
N      -0.332858   -2.948954    2.004460
H       0.845362    1.963609    0.516358
H      -0.110077    1.922349   -0.978796
H      -0.917519    1.874492    0.596987
H      -0.849876   -0.473204   -0.367677
H       1.336571   -1.611207   -0.808565
H       2.232168   -0.091065   -0.308326
H       2.048881   -0.371113    2.505076
