16

O      -0.034952    0.973868    1.259412
C       0.135104    1.391027    0.146956
C       1.469443    1.937379   -0.361015
N       1.316781    2.881143   -1.444897
C       0.826440    4.228408   -1.145653
C       1.705618    4.963755   -0.239261
C       2.423679    5.555601    0.520460
C       1.683676    2.578679   -2.729538
O       1.590276    3.324405   -3.677859
H      -0.674369    1.389146   -0.620183
H       2.020812    2.375634    0.477627
H       2.049989    1.078690   -0.723213
H       0.746928    4.738411   -2.110133
H      -0.182395    4.170805   -0.715697
H       3.058216    6.092751    1.181798
H       2.079508    1.547355   -2.807268
