18

C      -0.022898    1.524778    0.167191
C       0.021886   -0.008895    0.062714
C       0.761503   -0.617940    1.259434
N      -1.299880   -0.638118   -0.025391
C       0.767503   -0.452476   -1.259414
C       0.037688   -0.006992   -2.453717
N      -0.576881    0.344779   -3.365936
C       2.160053    0.007751   -1.309027
N       3.259603    0.360428   -1.311680
H       0.979751    1.961771    0.208451
H      -0.551026    1.962163   -0.686017
H      -0.555773    1.811561    1.078636
H       0.265457   -0.319421    2.188548
H       0.751363   -1.710321    1.205260
H       1.796771   -0.272524    1.308877
H      -1.762967   -0.581584    0.876404
H      -1.889622   -0.139904   -0.687247
H       0.763593   -1.548595   -1.262327
