23

C      -0.540539    1.090049    0.957461
C       0.260256   -0.083785    0.426830
C       0.689848   -0.071893   -1.054226
C       2.142490   -0.139533   -0.505506
C       3.016541    1.070173   -0.804429
O       1.638818   -0.060378    0.867087
C       2.802953   -1.485197   -0.727495
C       3.647258   -1.798452   -1.940043
C       4.281510   -1.732258   -0.573084
H      -0.095951    2.040116    0.644833
H      -1.571679    1.049131    0.588468
H      -0.568431    1.069613    2.051625
H      -0.220252   -1.025098    0.730406
H       0.375770   -0.927126   -1.654847
H       0.450477    0.850992   -1.587928
H       2.446740    1.988187   -0.640771
H       3.883402    1.094234   -0.137847
H       3.371074    1.070265   -1.840273
H       2.165135   -2.298519   -0.390823
H       3.522075   -2.768024   -2.409512
H       3.868859   -0.998603   -2.637964
H       4.929715   -0.890253   -0.359951
H       4.592532   -2.657297   -0.100611
