18

C      -0.094189    1.470076    0.004154
C       0.045961   -0.037266   -0.035176
O       0.829413   -0.370837   -1.141186
C       0.793703   -1.740792   -1.495604
C       1.381796   -2.643199   -0.416410
N       0.557942   -2.696778    0.790115
C       0.474758   -1.676675    1.713613
O       0.268202   -1.853720    2.886475
O       0.653339   -0.420571    1.210383
H       0.896661    1.924240    0.081131
H      -0.576022    1.820856   -0.911145
H      -0.690188    1.768638    0.868341
H      -0.930384   -0.541503   -0.100715
H      -0.239083   -2.054269   -1.712689
H       1.385688   -1.829116   -2.411093
H       1.440594   -3.661965   -0.810508
H       2.403477   -2.310546   -0.190235
H       0.496573   -3.595599    1.244533
