12

O      -0.106800    0.047812    0.100911
C       0.073882    1.196149   -0.138372
O       0.912245    1.968147    0.631973
C       0.995500    3.287015    0.331279
C       2.035658    4.058226   -0.068551
C       1.510984    5.393694   -0.131170
C       0.205810    5.314051    0.229356
O      -0.127793    4.020268    0.522806
H      -0.375233    1.770414   -0.965674
H       3.035571    3.720721   -0.284511
H       2.044411    6.288047   -0.411708
H      -0.591820    6.030724    0.324883
