19

O      -0.083534    1.501622    0.028906
C      -0.014657    0.110205    0.004459
C      -1.304581   -0.757990   -0.051540
C      -2.531330   -0.060696   -0.655362
C      -2.536195   -0.015908   -2.200693
C      -1.274457    0.460271   -2.888583
C      -0.018252    0.161115   -2.538436
C       0.339010   -0.638859   -1.317203
O      -0.650704   -1.647119   -0.994676
H      -0.394591    1.789156   -0.840479
H       0.633568   -0.197132    0.827717
H      -1.564997   -1.287596    0.870544
H      -3.445714   -0.568283   -0.330938
H      -2.577185    0.955407   -0.243717
H      -2.754011   -1.025078   -2.571397
H      -3.374223    0.610870   -2.523781
H      -1.424810    1.050953   -3.789996
H       0.808518    0.541430   -3.133377
H       1.341207   -1.071231   -1.397146
