22

C       0.004688    1.371974    0.636868
C      -0.012510   -0.026475    0.037271
C       0.960497   -0.291442   -1.086739
C       1.199593   -0.899777    0.274395
C      -1.378382   -0.675735    0.039241
C      -1.974059   -0.921848    1.428797
O      -3.169423   -1.663687    1.369386
C      -2.307381   -0.437851   -1.094841
N      -1.715256   -1.775002   -0.880927
H       1.008839    1.803258    0.584158
H      -0.677109    2.039492    0.098263
H      -0.293928    1.367125    1.690035
H       0.687989   -0.953639   -1.902482
H       1.590374    0.534260   -1.400347
H       2.007750   -0.507882    0.882709
H       1.042290   -1.968373    0.377289
H      -1.211495   -1.428885    2.045154
H      -2.208267    0.030576    1.916451
H      -3.010119   -2.336314    0.689564
H      -3.376869   -0.387770   -0.916897
H      -1.940311    0.151426   -1.930737
H      -0.975798   -1.956268   -1.552071
