19

C      -0.019982    1.420930   -0.177263
O      -0.037623    0.007536   -0.095123
C       0.722775   -0.626265   -1.068745
O       2.099655   -0.305442   -0.864332
C       2.892785   -0.319913   -2.027415
C       2.965013   -1.620774   -2.775170
C       2.273452   -2.752929   -2.573544
C       1.192124   -3.013569   -1.625842
C       0.480934   -2.104415   -0.950294
H       0.985763    1.820396   -0.009630
H      -0.381024    1.766050   -1.158551
H      -0.693000    1.790879    0.598824
H       0.440173   -0.263574   -2.078672
H       2.591798    0.480178   -2.730050
H       3.901432   -0.055192   -1.683566
H       3.710969   -1.615774   -3.568811
H       2.532003   -3.599042   -3.206717
H       0.932132   -4.061343   -1.497132
H      -0.313346   -2.399378   -0.273156
