19

O      -0.103509    0.046818   -0.272783
C      -0.088913    1.235318   -0.074656
C      -1.302649    2.124386    0.207270
C      -0.704866    3.464116    0.665765
C       0.645449    3.541529   -0.082014
C       1.171026    2.104832   -0.063151
C       2.187801    1.720849    1.057445
O       3.218151    1.440560    0.099328
C       2.318747    1.678825   -1.001122
H      -1.847785    2.237495   -0.739597
H      -1.987208    1.647587    0.912482
H      -1.351339    4.319375    0.457044
H      -0.529702    3.446113    1.747777
H       0.476734    3.854758   -1.120774
H       1.341982    4.257673    0.362223
H       2.457481    2.540119    1.736537
H       1.917770    0.831977    1.640793
H       2.111730    0.761905   -1.565629
H       2.688520    2.461093   -1.675479
