18

O       0.128883    1.474790   -0.097084
C       0.046583    0.092767   -0.035335
C       0.158036   -0.669514    1.349854
C      -1.033865   -0.052701    2.090984
C      -2.009964   -0.040960    1.171033
C      -1.353732   -0.646870   -0.071908
C      -0.565949   -1.809938    0.585808
C      -0.002777   -3.048098    0.019708
N      -1.082678   -3.074891    1.043407
H      -0.492892    1.818686    0.559946
H       0.742444   -0.301334   -0.779584
H       1.104611   -0.808681    1.871540
H      -1.053129    0.269971    3.122146
H      -3.035151    0.288950    1.258617
H      -1.935081   -0.765474   -0.984351
H      -0.304199   -3.400832   -0.963099
H       1.003201   -3.337478    0.315348
H      -0.705131   -3.315300    1.956552
