14

C       0.006857    1.420343    0.096461
N       0.118380   -0.024123    0.041932
C       0.628749   -0.573812   -0.989887
C       0.722241   -2.038026   -1.001949
N       1.201996   -2.757821   -1.941607
O       1.681119   -2.018056   -3.068108
C       1.586692   -0.668823   -3.043784
O       2.074632   -0.147077   -4.165529
N       1.115805    0.077084   -2.127158
H       0.544538    1.778509    0.982613
H       0.385647    1.937309   -0.790660
H      -1.046961    1.683344    0.247824
H       0.355985   -2.590506   -0.142020
H       2.381315   -0.867986   -4.732832
