21

C      -0.105581    1.521558    0.003033
C       0.024519    0.025402    0.041793
C      -0.822559   -0.846704    0.931789
C       0.672261   -0.895778    1.085015
C       1.271746   -1.775635   -0.016848
C       0.654622   -0.811873   -1.088333
C      -0.259852   -1.387844   -2.179256
C       0.527694   -2.190530   -3.187925
O       0.381619   -3.365796   -3.406451
H       0.831581    1.997299   -0.309510
H      -0.887736    1.839009   -0.698075
H      -0.370121    1.920561    0.987803
H      -1.354104   -0.309756    1.711637
H      -1.364102   -1.708535    0.547866
H       1.162773   -0.627084    2.013214
H       2.363470   -1.783962   -0.038242
H       0.916348   -2.811526   -0.040554
H       1.454547   -0.232535   -1.564227
H      -1.040254   -2.027601   -1.758898
H      -0.740887   -0.555733   -2.713906
H       1.304578   -1.601826   -3.732871
