17

O      -0.005454    1.296430    0.079926
C       0.012821   -0.097096   -0.029708
C      -1.364790   -0.685045   -0.006843
C      -0.547889   -0.659607   -1.310674
C      -0.520234   -2.207482   -1.328636
C      -1.367206   -2.230450   -0.012835
C      -0.242288   -3.002478    0.737151
C       0.621507   -2.906151   -0.548183
O       1.726481   -3.266747   -0.828666
H       0.719996    1.644522   -0.449498
H       0.851517   -0.577029    0.476479
H      -2.198551   -0.057273    0.282077
H      -0.664920   -0.029810   -2.183978
H      -0.849743   -2.679583   -2.254663
H      -2.357984   -2.680828   -0.007738
H       0.182022   -2.569698    1.646487
H      -0.508361   -4.044955    0.943973
