18

C      -0.052988    1.546047   -0.023704
C       0.023156    0.014710    0.029200
C       0.843700   -0.468578    1.230435
C      -1.406541   -0.554160    0.041812
N      -1.440780   -2.009215   -0.077536
N      -1.241361   -2.659746   -1.212383
N      -1.316026   -3.918880   -0.900772
N      -1.558278   -4.029503    0.418272
N      -1.636143   -2.840090    0.934999
H       0.951141    1.976915   -0.067847
H      -0.606396    1.894160   -0.901953
H      -0.546680    1.948313    0.868614
H       0.499964   -0.342101   -0.892249
H       0.405182   -0.116418    2.171292
H       0.900757   -1.559493    1.277367
H       1.865768   -0.082979    1.172839
H      -1.920417   -0.317302    0.976379
H      -1.989152   -0.157619   -0.792844
