17

N      -0.123501   -1.144830   -0.237909
C      -0.072369    0.002502   -0.108434
C      -0.015975    1.448372    0.041287
C      -0.486788    1.967504    1.423772
O       0.056099    3.277946    1.514480
C       1.324022    3.294814    0.890205
C       2.512392    2.686748    1.683672
N       2.340411    1.415940    0.939853
C       1.411223    2.036268   -0.021712
H      -0.625090    1.910860   -0.743887
H      -1.572035    2.043313    1.511642
H      -0.101662    1.312316    2.214481
H       1.476760    4.287096    0.465314
H       3.454895    3.214154    1.488441
H       2.369034    2.599630    2.765736
H       3.174807    0.999163    0.548586
H       1.776709    2.166354   -1.043829
