16

O       0.038171    0.098561   -0.291538
C       0.027163    1.277956   -0.108384
C      -1.085317    2.321577    0.140851
C       0.002511    3.181183    0.849545
C       1.106737    2.368397    0.104312
N       1.490741    2.960164   -1.162230
C       0.668791    3.340310   -2.044479
O      -0.685164    3.335523   -2.146989
C      -1.629182    2.933915   -1.142333
H      -1.935036    1.977541    0.736847
H      -0.001922    4.253275    0.643586
H       0.021755    3.012813    1.928725
H       2.003544    2.090938    0.660731
H       1.056147    3.774040   -2.965248
H      -2.297807    2.221995   -1.636285
H      -2.206685    3.831898   -0.893975
