17

C      -0.155628    1.449593   -0.027922
C       0.027561   -0.035996   -0.036071
C       0.973077   -0.883533   -0.893364
C       0.160118   -2.097089   -0.387796
O       0.463624   -2.144245    1.034253
C      -0.287449   -0.943336    1.156815
C      -1.068956   -1.130105   -0.120570
C      -2.431334   -1.104315   -0.473211
C      -3.593913   -1.081611   -0.789567
H       0.741934    1.952033    0.350393
H      -0.358523    1.832775   -1.033666
H      -0.995929    1.739419    0.611702
H       0.812775   -0.698465   -1.958778
H       2.041865   -0.886206   -0.655569
H       0.152284   -3.072031   -0.868571
H      -0.598155   -0.606094    2.137179
H      -4.619747   -1.065727   -1.062099
