16

C      -0.012481    1.468767   -0.060366
C      -0.069761   -0.021563   -0.029266
O       0.767562   -0.732846   -0.913312
C      -0.101501   -1.936957   -0.734802
C       0.575617   -2.752921    0.335175
C       0.473801   -2.069948    1.485904
C      -0.365519   -0.867890    1.282518
C      -1.146417   -1.047965   -0.004065
H       0.994367    1.815359    0.196177
H      -0.259010    1.849251   -1.056998
H      -0.715288    1.896199    0.660330
H      -0.325251   -2.390434   -1.698628
H       1.200705   -3.613684    0.139199
H       0.992863   -2.290290    2.410749
H      -0.806065   -0.317424    2.105149
H      -2.222395   -1.011661   -0.121303
