21

C      -0.084016    1.490976    0.015917
C      -0.000191   -0.001285   -0.031161
C      -0.142340   -0.785358   -1.102488
C      -0.015008   -2.247271   -0.780824
O       0.896637   -2.951757   -1.623233
C       0.437865   -2.266042    0.732289
C      -0.314178   -3.311217    1.555106
O       1.841254   -2.513886    0.787650
C       0.231433   -0.813998    1.223104
H       0.838891    1.921591    0.424604
H      -0.255014    1.920185   -0.974830
H      -0.896972    1.820076    0.675812
H      -0.340087   -0.439138   -2.111993
H      -0.964108   -2.782630   -0.905628
H       1.689183   -2.403281   -1.672229
H      -0.157379   -4.312923    1.138004
H       0.041042   -3.313012    2.589941
H      -1.391806   -3.114289    1.556473
H       1.988194   -3.305715    0.254260
H       1.107532   -0.477200    1.788879
H      -0.629881   -0.736767    1.899935
