16

C       0.079820    1.386052    0.184654
N      -0.057276   -0.002352   -0.204178
C      -1.250254   -0.679788   -0.074906
C      -2.508899   -0.050554   -0.001230
N      -3.618906   -0.757409    0.084125
C      -3.456709   -2.092767    0.096785
N      -4.582398   -2.868457    0.246379
N      -2.283111   -2.734233    0.017744
N      -1.176283   -2.015687   -0.058901
H       1.129767    1.671618    0.096521
H      -0.491881    2.039071   -0.484751
H      -0.247837    1.586260    1.216700
H       0.738814   -0.600887   -0.039859
H      -2.609206    1.031589   -0.017212
H      -5.446061   -2.429470   -0.029785
H      -4.471822   -3.832488   -0.026321
