18

C      -0.009994    1.525643    0.105054
C      -0.083929    0.033907    0.055059
C       0.120495   -1.008146    1.104062
C      -0.482787   -2.058934    0.091777
C       0.920084   -2.067146   -0.536750
N       1.210173   -0.745773    0.125591
C      -1.107724   -0.852475   -0.613070
C      -2.504352   -0.575669   -0.924704
O      -1.529095   -0.809618   -1.962283
H       0.807769    1.843257    0.756629
H       0.174266    1.936930   -0.892988
H      -0.943548    1.955000    0.483737
H       0.216690   -0.953602    2.180086
H      -1.059004   -2.956471    0.306097
H       1.590478   -2.815790   -0.108225
H       0.989555   -2.072309   -1.629877
H      -3.252961   -1.357913   -0.805685
H      -2.888064    0.442448   -0.872025
