18

C      -0.205848    1.497999    0.032880
C       0.115436    0.005066   -0.017610
C       0.969551   -0.413205   -1.247103
C       2.002344   -1.324119   -0.633339
N       2.738059   -2.089584   -1.341017
O       3.627677   -2.866716   -0.572927
C       1.875749   -1.122276    0.840802
N       2.783806   -1.617489    1.730341
N       0.858287   -0.411471    1.177373
H       0.716216    2.089073    0.050659
H      -0.793712    1.800574   -0.840303
H      -0.776049    1.734180    0.935262
H      -0.835963   -0.546468   -0.027361
H       0.399761   -0.903213   -2.039389
H       1.459956    0.462271   -1.689343
H       4.089095   -3.374599   -1.247522
H       3.367066   -2.375506    1.420004
H       2.504746   -1.598501    2.698456
