17

C       0.004228    1.569481    0.015495
C      -0.036610    0.058380    0.087814
C      -1.375494   -0.643576   -0.050783
C      -1.302489   -1.869510    0.469996
C       0.058583   -2.070879    1.067197
C       1.285998   -1.731564    0.191466
C       0.697337   -0.734823    1.227467
C       0.960213   -0.714540   -0.845732
O       1.472712   -0.403265   -1.885848
H       1.024433    1.944504    0.140127
H      -0.352190    1.910852   -0.960999
H      -0.627342    2.021393    0.787106
H      -2.197561   -0.223619   -0.616780
H      -2.064733   -2.637040    0.447751
H       0.246404   -2.854039    1.793522
H       2.187505   -2.328383    0.239012
H       1.194954   -0.326610    2.097406
