17

C       0.626562    0.343737    1.369066
C       0.103063    0.045026   -0.020884
O       0.680856    0.389278   -1.028336
C      -1.185091   -0.760649   -0.070605
C      -1.747143   -1.208179   -1.437956
C      -1.517045   -2.640562   -0.958240
C      -0.112084   -2.855177   -0.575608
N      -1.008657   -2.199525    0.409141
H       1.634243    0.756748    1.312243
H      -0.034462    1.067102    1.861581
H       0.614783   -0.564353    1.980641
H      -1.934969   -0.292285    0.574028
H      -2.798782   -0.949408   -1.567187
H      -1.180998   -0.892933   -2.316644
H      -2.227399   -3.455518   -1.048909
H       0.177379   -3.850356   -0.253750
H       0.676288   -2.281470   -1.056385
