19

C      -0.141989    1.513927    0.133728
C       0.033255    0.009764    0.018523
C      -1.282808   -0.759569   -0.256745
C      -1.222518   -2.006300    0.604575
O      -0.115723   -2.865213    0.315268
C      -0.009319   -1.989030    1.444895
C       0.797796   -0.739532    1.156094
C       1.916334   -0.886726    0.102444
O       1.085575   -0.315491   -0.928278
H       0.813484    1.998383    0.355254
H      -0.517805    1.923601   -0.809980
H      -0.854534    1.767987    0.925915
H      -2.156930   -0.159535    0.020339
H      -1.358811   -0.998960   -1.321618
H      -2.136368   -2.517647    0.899660
H       0.050908   -2.484501    2.410913
H       1.036787   -0.175402    2.059416
H       2.807578   -0.275622    0.291700
H       2.212437   -1.912801   -0.133663
