21

C      -0.099126    1.507475    0.073528
C      -0.007116   -0.017173    0.065849
C       1.196209   -0.499590   -0.825457
C       2.081244   -0.557131    0.480281
C       0.759445   -0.684780    1.237437
C      -0.117249   -0.493469    2.484013
C      -0.981860   -1.459825    1.599572
C      -1.380094   -0.716023    0.289714
O       0.263522   -2.064905    1.157986
H       0.885093    1.978427    0.171252
H      -0.536606    1.862991   -0.866864
H      -0.730657    1.879453    0.887015
H       1.045562   -1.491954   -1.248942
H       1.522301    0.189864   -1.608008
H       2.783262   -1.384612    0.597107
H       2.597121    0.387269    0.665505
H       0.239086   -1.016439    3.372387
H      -0.479482    0.508686    2.724897
H      -1.690232   -2.160390    2.043633
H      -2.203344   -0.004018    0.402788
H      -1.655793   -1.448338   -0.473392
