22

C      -0.056868    1.472926   -0.058433
C       0.021795   -0.053283    0.023990
C       0.756898   -0.532487    1.268218
O       0.784818   -1.943085    1.267478
C       1.447153   -2.490456    2.385262
C       1.412332   -4.008365    2.273189
C       2.106421   -4.698750    3.439601
O       2.011749   -6.099622    3.231893
H       0.941292    1.924022   -0.086267
H      -0.588781    1.790968   -0.959692
H      -0.585741    1.893404    0.804166
H      -0.984854   -0.486804    0.026571
H       0.532386   -0.456377   -0.858112
H       1.784942   -0.128183    1.285437
H       0.253832   -0.158953    2.178177
H       2.490248   -2.129060    2.427233
H       0.959000   -2.159828    3.319494
H       0.371248   -4.344576    2.224417
H       1.892029   -4.313942    1.337363
H       3.159149   -4.375000    3.494313
H       1.627690   -4.404113    4.388346
H       2.451092   -6.541925    3.963896
