21

C       0.714102    0.117963   -1.254344
C      -0.059083    0.014258    0.065224
C       0.669868   -0.664906    1.245308
O      -0.126807   -0.529331    2.415720
C       0.891081   -2.172824    1.005168
O      -0.344973   -2.881003    1.043892
C       2.036064   -0.013918    1.560842
C       2.001302    1.436536    1.695433
C       1.987450    2.634357    1.793553
H       1.027028   -0.859361   -1.638547
H       0.090109    0.582464   -2.024047
H       1.608495    0.738077   -1.144001
H      -0.339662    1.014496    0.406676
H      -1.004539   -0.521346   -0.096901
H      -0.775805   -1.244816    2.368552
H       1.431093   -2.358148    0.067678
H       1.487538   -2.580067    1.827567
H      -0.800173   -2.740003    0.207877
H       2.396192   -0.457621    2.496035
H       2.757062   -0.287975    0.780162
H       1.971052    3.691189    1.893468
