18

N      -0.062058    1.299780   -0.137201
C      -0.046595    0.040127   -0.052309
O      -1.198399   -0.654217   -0.031181
C      -1.116827   -2.074637   -0.066713
C      -2.248432   -2.842277    0.576643
C      -3.350518   -3.009529   -0.475663
C      -2.897605   -2.273491   -1.735750
C      -1.475420   -2.793809   -1.394216
C      -2.143738   -3.912326   -0.496900
H       0.890553    1.658002   -0.116823
H       0.848217   -0.595458    0.021732
H      -0.143946   -2.405661    0.315648
H      -2.443516   -2.975565    1.632172
H      -4.357402   -3.258707   -0.167133
H      -3.287134   -2.756184   -2.635690
H      -3.032847   -1.189804   -1.794465
H      -0.721715   -2.937876   -2.165033
H      -2.013289   -4.980486   -0.419021
