18

C      -0.059580    1.613434    0.073186
C       0.039619    0.107587    0.074563
C       1.330664   -0.636617   -0.214834
O       2.524861    0.104938   -0.108800
C       2.876198    0.065678    1.270861
C       3.702166    1.270062    1.652155
O       1.642274    0.048387    1.982031
C       0.747516   -0.673858    1.166660
H       0.848526    2.068219    0.468989
H      -0.212571    1.990058   -0.943316
H      -0.901856    1.946196    0.688303
H      -0.838304   -0.409460   -0.309899
H       1.371760   -1.480967   -0.895165
H       3.419775   -0.874604    1.474934
H       3.150597    2.189724    1.444118
H       3.942893    1.230946    2.717485
H       4.633935    1.275178    1.081038
H       0.305145   -1.549118    1.631095
