17

C       0.106769    0.990362    0.490061
O      -0.159177   -0.014455   -0.479300
C      -1.368324   -0.656560   -0.288644
C      -1.492762   -2.064367   -0.750645
C      -0.177753   -2.799156   -0.978888
O       0.513556   -2.830420    0.277625
C      -0.241388   -2.323796    1.291250
O       0.119270   -2.348883    2.433521
C      -1.521958   -1.773125    0.740162
H       1.070041    1.432525    0.229569
H      -0.665325    1.772941    0.472611
H       0.161531    0.564380    1.499466
H      -2.246868   -0.017698   -0.394559
H      -2.367656   -2.382532   -1.303833
H      -0.351084   -3.830370   -1.302254
H       0.466305   -2.295985   -1.704508
H      -2.398940   -1.816217    1.371594
