18

C      -0.097110    1.547418   -0.035872
C       0.066814    0.028570   -0.088762
O       0.986708   -0.361835   -1.102419
C       0.636558   -0.518880    1.222386
N       0.618915   -1.970389    1.292994
C      -0.154124   -2.758347    2.100945
N       0.081826   -4.026178    1.889452
N       1.048347   -4.098022    0.903162
C       1.350035   -2.870291    0.565750
H       0.862987    2.030647    0.170609
H      -0.464346    1.923516   -0.996012
H      -0.815399    1.844741    0.735188
H      -0.912268   -0.445261   -0.258308
H       0.581801   -0.208485   -1.961449
H       1.666107   -0.161599    1.332026
H       0.056664   -0.138575    2.066631
H      -0.853404   -2.353112    2.816730
H       2.057821   -2.566735   -0.187333
