24

C      -0.422137    1.498134   -1.244482
C      -0.111442    0.042717   -0.878351
C      -1.380829   -0.744905   -0.538569
C      -1.224945   -2.199683   -0.109725
C      -0.118991   -3.063947   -0.681321
C      -0.094223   -2.637662    0.773914
N      -2.543086   -2.736444    0.186508
C      -3.288933   -3.382444   -0.888988
C      -2.781455   -4.167702    0.270731
H       0.489761    2.049585   -1.493607
H      -1.092979    1.554006   -2.108963
H      -0.911604    2.018822   -0.414139
H       0.415019   -0.430599   -1.715807
H       0.581639    0.029071   -0.028557
H      -1.923497   -0.229347    0.264207
H      -2.049934   -0.724059   -1.410377
H      -0.315670   -4.107416   -0.901817
H       0.594997   -2.609552   -1.358608
H       0.646350   -1.911298    1.088521
H      -0.316811   -3.394120    1.519362
H      -4.340302   -3.119788   -0.967083
H      -2.779508   -3.534052   -1.839302
H      -1.966338   -4.862269    0.080776
H      -3.453787   -4.477026    1.066626
