21

C       0.017953    1.492516    0.127544
C       0.017708   -0.003042   -0.017268
C       0.877893   -0.791975   -1.046659
C       0.723175   -1.840940    0.092514
C       1.715176   -2.929114    0.391632
O       0.737027   -0.721561    1.037406
C      -0.788358   -2.180472    0.005940
C      -1.659484   -1.637059    1.110933
C      -1.329848   -0.769772   -0.078319
H       1.038487    1.881990    0.177144
H      -0.490708    1.956372   -0.724089
H      -0.510851    1.787449    1.039684
H       0.451288   -1.014398   -2.028936
H       1.897033   -0.405409   -1.124057
H       2.732214   -2.530547    0.440819
H       1.482093   -3.404876    1.349724
H       1.680181   -3.698935   -0.386398
H      -1.123351   -2.989825   -0.631863
H      -2.672768   -2.023614    1.150979
H      -1.212093   -1.408052    2.069921
H      -2.093523   -0.462309   -0.782828
