17

C       0.044834    1.399446    0.079202
N      -0.000366   -0.059928    0.094888
C      -1.225790   -0.659666   -0.004383
N      -2.361791   -0.032606    0.021524
O      -3.346671   -1.084110   -0.003634
C      -2.727857   -2.302994   -0.044623
N      -1.364239   -2.021137   -0.112435
N      -3.247116   -3.449682   -0.024737
C      -4.697208   -3.540237    0.061118
H       1.073124    1.716853    0.261534
H      -0.308723    1.827296   -0.867260
H      -0.591968    1.780265    0.879992
H       0.719469   -0.511122   -0.451764
H      -0.667453   -2.710758    0.111007
H      -5.133925   -2.816745    0.762363
H      -5.167127   -3.372155   -0.917468
H      -4.969703   -4.547166    0.388446
