14

N      -0.310810    0.999712    0.336635
C      -0.474284   -0.250322    0.368002
O      -0.603603   -0.933877   -0.793622
C      -0.854602   -2.331946   -0.679807
C      -2.289234   -2.623625   -0.322834
C      -2.651246   -3.825810    0.436965
O      -2.617173   -2.545655    1.068657
H      -0.214964    1.358101    1.284620
H      -0.525944   -0.887184    1.259051
H      -0.615869   -2.749513   -1.662297
H      -0.189455   -2.789600    0.064268
H      -3.031329   -2.175521   -0.983519
H      -3.640560   -4.261697    0.311423
H      -1.873564   -4.522135    0.748666
