18

O      -0.038362    1.424876    0.149605
C      -0.007115    0.009559    0.161866
C      -1.421938   -0.528040    0.021936
C      -2.393382   -0.428805    1.225150
C      -2.678223   -1.938273    1.011719
N      -1.702379   -2.023194   -0.128736
C      -2.357172   -1.801309   -1.457259
C      -2.033305   -0.300804   -1.361085
O      -2.076492    0.644529   -2.098598
H      -0.450232    1.693485   -0.682027
H       0.629644   -0.402085   -0.637090
H       0.428036   -0.295335    1.119505
H      -1.882423   -0.183995    2.158428
H      -3.238247    0.251835    1.106401
H      -2.382434   -2.585608    1.841161
H      -3.705495   -2.191457    0.728890
H      -1.841903   -2.309473   -2.279684
H      -3.421982   -2.057083   -1.504279
