23

C       0.365763    1.669319   -0.137088
C       0.099475    0.163730   -0.004711
C       0.713408   -0.628649   -1.177207
C       2.174144   -0.811528   -0.774345
C       3.166377   -1.480000   -1.620436
O       3.153424   -0.054487   -1.503472
C       2.249407   -0.735614    0.753873
C       0.790840   -0.503527    1.219139
C       0.665890    0.227194    2.554854
H       1.436391    1.890515   -0.199949
H      -0.099882    2.058175   -1.048512
H      -0.045761    2.228571    0.708317
H      -0.983888    0.007362    0.048936
H       0.229213   -1.610216   -1.257272
H       0.629186   -0.131597   -2.147281
H       4.020858   -1.979468   -1.163503
H       2.874529   -1.872274   -2.595258
H       2.686314   -1.633774    1.200592
H       2.894465    0.106179    1.028058
H       0.320861   -1.490304    1.332803
H       1.158888    1.204297    2.528276
H      -0.383493    0.387309    2.826063
H       1.129953   -0.352016    3.360424
