17

O       0.008629    1.472273   -0.077792
C       0.013278    0.096379   -0.016037
C      -0.972652   -0.805637   -0.756370
O      -1.046870   -1.699795    0.390289
C      -0.224461   -0.817802    1.158899
C       1.160473   -0.720578    0.556978
C       1.853710   -1.877059   -0.141839
C       2.671406   -2.698725    0.832172
O       3.832086   -2.983114    0.686984
H       0.722733    1.758094   -0.658324
H      -1.936081   -0.312228   -0.922683
H      -0.645014   -1.316325   -1.669282
H      -0.478698   -0.653093    2.198925
H       1.806354   -0.078675    1.154873
H       1.086459   -2.542078   -0.559652
H       2.508602   -1.543057   -0.952186
H       2.104722   -3.032608    1.731860
