21

C       0.089550    1.546946   -0.375029
C       0.196879    0.033101   -0.266184
C       1.164369   -0.743598   -1.186946
O       2.518707   -0.237438   -1.094314
C       2.782577   -1.032498    0.087752
C       2.276075   -0.338149    1.371652
C       2.729627    1.075491    1.704774
C       0.814106   -0.713271    0.961822
C       1.422762   -1.766616   -0.049604
H       1.073199    2.005837   -0.490800
H      -0.511313    1.827118   -1.247619
H      -0.390293    1.980437    0.509068
H      -0.794707   -0.417921   -0.412756
H       0.882843   -0.958982   -2.220637
H       3.780824   -1.476358    0.062150
H       2.526952   -1.011077    2.203749
H       2.731494    1.709949    0.816519
H       2.081850    1.538647    2.456883
H       3.748855    1.066406    2.107323
H       0.129741   -0.961284    1.774383
H       1.245748   -2.838114   -0.067723
