16

O      -0.157208    1.459472   -0.302491
C       0.020747    0.093738    0.072141
C      -1.359219   -0.520468    0.036492
O      -2.263669    0.163901    0.849973
C      -1.883781   -1.171777   -1.201064
C      -1.577047   -2.024109    0.036797
C      -0.451395   -2.984132    0.000979
O      -0.404031   -4.004861    0.642223
H       0.603627    1.961814    0.001785
H       0.705115   -0.420353   -0.615925
H       0.427015    0.016125    1.090120
H      -2.127455    1.099352    0.647340
H      -2.930656   -1.030578   -1.439575
H      -1.219662   -1.283653   -2.052624
H      -2.421993   -2.344292    0.636248
H       0.376396   -2.710001   -0.694803
