21

C      -0.095201    1.607151    0.014559
C       0.025154    0.085238    0.010618
C      -1.350575   -0.564943   -0.167629
C       1.089211   -0.626257   -0.877076
C       2.421137    0.108322   -0.910841
O       2.719190    0.701724    0.351533
C       2.124318    0.078644    1.488390
C       0.842984   -0.650879    1.113219
O       1.225489   -1.664915    0.137465
H       0.867345    2.103307    0.139770
H      -0.544321    1.953449   -0.923554
H      -0.760398    1.931838    0.823122
H      -1.808778   -0.246956   -1.110902
H      -1.273240   -1.654652   -0.171522
H      -2.025791   -0.268616    0.642989
H       0.797365   -1.022260   -1.855389
H       3.204145   -0.610953   -1.193918
H       2.416106    0.923333   -1.644404
H       2.816917   -0.649669    1.936117
H       1.938237    0.875553    2.218249
H       0.322757   -1.069720    1.980989
