18

C      -0.124131    1.615052   -0.097674
C       0.181882    0.131299    0.037384
C       1.451315   -0.697242   -0.178822
O       1.538551   -1.688057   -1.141521
C       2.728844   -0.184882    0.558928
N       2.447028    1.095591    1.258614
C       2.016366   -0.198178    1.849572
C       0.719865   -0.711952    1.168045
O       0.021960   -1.671630    1.879648
H      -0.202646    1.889029   -1.156874
H      -1.092513    1.836075    0.366693
H       0.639800    2.229703    0.368434
H      -0.606342   -0.472359   -0.429520
H       1.594283   -1.267038   -2.007560
H       3.734234   -0.510432    0.324041
H       3.304335    1.368715    1.741413
H       2.345061   -0.529635    2.825550
H      -0.676946   -2.022190    1.317423
