15

N      -0.102429    1.289058    0.101609
C      -0.008461    0.020829    0.036702
N       1.085110   -0.809372   -0.078293
C       0.824853   -2.242411    0.020009
C      -0.693971   -2.310997   -0.051004
C      -1.473517   -3.341266   -0.758648
O      -1.376959   -3.334975    0.660688
C      -1.221191   -0.895112    0.062960
O      -2.374126   -0.576454    0.151775
H       0.815709    1.739540    0.082800
H       2.022662   -0.447916   -0.013374
H       1.312601   -2.790846   -0.793373
H       1.168539   -2.665881    0.972976
H      -2.448871   -3.070986   -1.158854
H      -0.942081   -4.145249   -1.266090
