15

O      -0.037968   -0.093784    0.148670
C      -0.020270    1.122358    0.120111
C       1.195464    1.899287    0.016213
C       1.293848    3.254437   -0.052330
N       2.590106    3.692428   -0.226880
C       3.497010    2.562258    0.059840
C       2.587995    1.320050   -0.120830
C       0.225004    4.196370    0.000765
N      -0.624004    4.980895    0.055769
H      -0.957281    1.715916    0.181881
H       2.835800    4.615720    0.099033
H       4.351264    2.574686   -0.620184
H       3.874140    2.629293    1.089129
H       2.789287    0.534804    0.610604
H       2.713198    0.870961   -1.113520
