15

O       0.088752    1.416252   -0.037444
C       0.043298    0.009231    0.021593
C       0.606752   -0.541893    1.356091
C      -0.627119   -0.740482    2.201776
C      -1.740606   -0.736449    1.471818
C      -1.427389   -0.546072   -0.005818
C      -2.370516    0.320270   -0.710514
N      -3.142723    0.989462   -1.249971
H      -0.423212    1.771036    0.699286
H       0.607266   -0.332634   -0.848319
H       1.135221   -1.493312    1.206992
H       1.331549    0.161814    1.777696
H      -0.589645   -0.901652    3.273036
H      -2.751427   -0.882910    1.830680
H      -1.438372   -1.520926   -0.514441
