19

O       0.040901    1.325356    0.053860
C      -0.017426   -0.067564    0.155208
C      -0.754644   -0.709074    1.304902
C      -1.361597   -0.674225   -0.076709
C      -2.655483    0.038392   -0.499496
C      -3.130065   -1.288541   -1.180035
C      -1.741915   -1.881808   -0.906711
C      -0.912615   -2.755790   -1.738102
O      -1.505164   -3.222940   -0.514935
H       0.650737    1.647948    0.725656
H       0.851450   -0.595170   -0.242129
H      -0.403566   -1.667819    1.673292
H      -1.187562   -0.048315    2.049647
H      -3.287304    0.402751    0.312898
H      -2.480952    0.856076   -1.201996
H      -3.910221   -1.807592   -0.617604
H      -3.433180   -1.220403   -2.227192
H      -1.325012   -3.185482   -2.650628
H       0.172434   -2.658040   -1.723065
