18

O      -0.085810   -0.050601   -0.128059
C      -0.022122    1.151683    0.004955
N      -1.101304    1.986199    0.258945
C      -0.880463    3.421689    0.071105
C       0.633568    3.497234   -0.047438
C       1.456405    2.969813    1.082278
C       1.168635    2.060273   -0.085377
C       2.058367    2.386336   -1.297381
C       1.493896    3.851418   -1.276934
H      -2.018314    1.584953    0.379714
H      -1.362967    3.788133   -0.845981
H      -1.286407    3.996522    0.912681
H       2.474087    3.325709    1.216632
H       0.931021    2.746618    2.004293
H       3.133843    2.268068   -1.138738
H       1.776963    1.832567   -2.194438
H       0.889444    4.074523   -2.159368
H       2.216145    4.661585   -1.137823
