15

N      -0.019175   -1.159808   -0.043456
C      -0.019241   -0.004161   -0.020893
C      -0.059796    1.445323   -0.034357
C      -0.054149    2.090591    1.385897
O       1.382240    1.799929    1.459185
C       1.346745    2.117180    0.026998
C       1.028173    3.629621    0.066946
N      -0.364885    3.971039   -0.299443
C      -0.034169    3.609457    1.097447
H      -0.774620    1.822757   -0.763890
H      -0.632130    1.700547    2.220643
H       2.206055    1.754425   -0.532458
H       1.817870    4.367906    0.014037
H      -0.450922    4.983744   -0.368321
H      -0.125351    4.331022    1.899018
