19

C      -0.299343    1.254285   -0.190270
N       0.076926   -0.141859   -0.090280
C       0.681379   -0.776850   -1.137175
N       1.067502   -0.158508   -2.187905
C       0.927627   -2.275488   -0.873640
O      -0.179011   -2.853573   -0.182132
C      -0.882264   -3.692176   -1.102292
C      -0.215206   -3.394686   -2.450899
O       1.098599   -2.997550   -2.062094
H       0.568752    1.841320   -0.498479
H      -1.091250    1.426455   -0.931991
H      -0.641662    1.603211    0.786871
H      -0.469732   -0.739615    0.509127
H       1.539948   -0.817022   -2.806525
H       1.831205   -2.404545   -0.265889
H      -0.754725   -4.740203   -0.805834
H      -1.948025   -3.444282   -1.089249
H      -0.130814   -4.263197   -3.105937
H      -0.723966   -2.580058   -2.982364
