17

C      -0.165909    1.620456    0.246209
C       0.037628    0.141302    0.094959
C      -1.141489   -0.849058   -0.054372
C      -0.477071   -1.787411    1.010505
O      -0.258275   -3.137686    0.731964
C       0.748478   -0.814688    1.098091
C       1.714668   -1.034534   -0.055370
O       2.668563   -1.710465   -0.286022
O       1.068733   -0.184661   -0.916242
H       0.779673    2.125564    0.462776
H      -0.579365    2.044952   -0.674597
H      -0.867630    1.826531    1.060034
H      -2.112851   -0.456289    0.253927
H      -1.225853   -1.269660   -1.058350
H      -1.038002   -1.762873    1.947725
H       0.399280   -3.218976    0.031245
H       1.161850   -0.554431    2.070337
