13

C       0.011543    1.489217    0.128455
O       1.231955    2.177111   -0.224665
C       2.106094    1.496236   -0.967319
N       3.158225    2.010386   -1.530704
O       3.774036    0.925716   -2.142902
N       3.080118   -0.240892   -1.940091
C       2.049441    0.092416   -1.215765
C       0.965610   -0.691901   -0.671802
C       0.015560   -0.009327   -0.023199
H      -0.187652    1.764201    1.169897
H      -0.800197    1.920475   -0.476499
H       0.945509   -1.768203   -0.787605
H      -0.840444   -0.513159    0.415064
