21

C       0.652128    1.321749   -0.412790
C       0.000277    0.025646    0.072006
O       0.029072   -1.000265   -0.921758
C       1.074146   -1.925714   -0.664058
C       2.487041   -1.554248   -1.205665
C       2.968674   -1.282151    0.250217
C       1.570091   -1.706244    0.790127
C       0.660490   -0.601570    1.340181
O       1.406524    0.302786    2.137009
H       1.725851    1.209512   -0.576422
H       0.186246    1.628372   -1.353366
H       0.509628    2.123802    0.318172
H      -1.062457    0.226993    0.259714
H       0.708950   -2.916285   -0.947563
H       2.998586   -2.386065   -1.696875
H       2.486557   -0.700064   -1.885753
H       3.782113   -1.929082    0.584516
H       3.241686   -0.251501    0.479795
H       1.580984   -2.580103    1.442487
H      -0.130605   -1.069659    1.943291
H       0.792324    0.904710    2.568106
