22

C      -0.010055    1.364653   -0.669037
C      -0.028091   -0.022196   -0.050420
C       1.198566   -0.857198   -0.171109
N       0.833970   -0.250489    1.123378
C      -1.386613   -0.689485    0.004212
C      -1.992281   -0.941462   -1.376332
O      -3.241126   -1.612284   -1.353131
C      -1.659335   -1.678922    1.108360
C      -2.314136   -0.318128    1.133345
H       1.000495    1.786215   -0.652044
H      -0.340527    1.351703   -1.712508
H      -0.673633    2.042002   -0.120184
H       1.114942   -1.940272   -0.199032
H       2.048379   -0.452537   -0.715018
H       1.406999    0.572539    1.292608
H      -2.192001    0.013003   -1.875524
H      -1.262348   -1.484290   -1.998848
H      -3.079362   -2.530479   -1.117345
H      -2.294870   -2.532072    0.895599
H      -0.857877   -1.862925    1.812705
H      -1.955853    0.394077    1.868809
H      -3.373922   -0.269056    0.910778
