17

N      -0.026311    1.485086    0.015374
C       1.453881    1.418712    0.000223
C       2.004449    0.854011    1.372552
N       0.806147    0.635357    2.250461
C       0.538547   -0.559321    1.381210
C      -0.014081    0.003393    0.008893
C       1.320304    0.083352   -0.806043
O       2.238922   -0.866563   -0.337185
C       2.061722   -0.674343    1.038793
H      -0.374279    1.851430    0.902501
H       1.988377    2.286688   -0.386917
H       2.845526    1.398695    1.801021
H       1.130182    0.304827    3.157563
H      -0.033828   -1.377400    1.818027
H      -0.903333   -0.501322   -0.369838
H       1.282729    0.115676   -1.890986
H       2.701221   -1.334042    1.624218
