15

C      -0.085702    1.473652    0.011909
C       0.000362    0.022485    0.011206
C       0.081682   -1.182352    0.012259
C       0.138123   -2.586353    0.007100
C       1.189475   -3.432277    0.173708
N       0.707707   -4.726272    0.079905
C      -0.668974   -4.745765   -0.149951
O      -1.394283   -5.709676   -0.280942
N      -0.991052   -3.398505   -0.189704
H       0.546919    1.913059   -0.767720
H      -1.114095    1.803247   -0.172041
H       0.229329    1.893781    0.973884
H       2.226454   -3.206573    0.349040
H       1.240948   -5.573743    0.160076
H      -1.927860   -3.069889   -0.342539
