18

C      -0.364541    1.413691   -0.020520
C       0.024708   -0.056198    0.017344
N       1.228845   -0.430246   -0.757056
C       1.941609   -1.049084    0.367149
C       0.778399   -0.586433    1.255974
C       0.765411   -0.119841    2.639295
O       0.181957   -1.377995    2.253332
C       1.419244   -0.642848   -2.080917
O       2.379615   -1.214579   -2.553149
H       0.484852    2.049935    0.244135
H      -0.711498    1.701086   -1.017803
H      -1.181393    1.605549    0.682981
H      -0.837897   -0.692849   -0.220568
H       2.034456   -2.136881    0.279148
H       2.925463   -0.616750    0.572586
H       1.670148   -0.191173    3.241112
H       0.055835    0.644540    2.951640
H       0.599554   -0.214749   -2.693881
