20

C      -0.221931    1.552653    0.100038
C       0.185267    0.105193   -0.002456
C       0.645711   -0.427319   -1.347043
C       1.428649   -1.708163   -1.027084
O       1.758610   -2.543281   -1.826436
C       1.745998   -1.736028    0.474395
C       0.846422   -0.681097    1.091932
C       1.199362   -0.137640    2.452645
N      -0.570884   -0.939326    0.733292
H       0.574822    2.213057   -0.259873
H      -1.110752    1.746694   -0.511483
H      -0.458969    1.841313    1.128055
H      -0.174780   -0.647253   -2.035696
H       1.321432    0.278195   -1.848843
H       1.584619   -2.739922    0.876863
H       2.807398   -1.489252    0.611059
H       2.222930    0.252940    2.468127
H       0.527321    0.668577    2.760389
H       1.137591   -0.927333    3.210391
H      -1.174739   -0.491032    1.420369
