19

C       0.015853    1.575452    0.023119
C       0.013371    0.043977   -0.004870
C       0.644753   -0.507734   -1.292224
C       0.584891   -2.044523   -1.357400
C       1.182112   -2.705004   -0.127137
O       1.897319   -3.674351   -0.156270
C       0.797911   -2.049963    1.229367
O       0.572343   -2.736017    2.194246
C       0.739967   -0.533112    1.229021
H       1.039226    1.966457   -0.016461
H      -0.532471    1.985601   -0.830933
H      -0.451092    1.956393    0.936763
H      -1.031750   -0.296955    0.030910
H       0.137087   -0.088993   -2.167726
H       1.690488   -0.176458   -1.352301
H      -0.469592   -2.357785   -1.400534
H       1.078966   -2.448724   -2.244898
H       1.781038   -0.172633    1.218911
H       0.290873   -0.202696    2.170063
