19

C       0.014871    1.598107    0.108080
C       1.539952    1.809596    0.035399
O       1.994666    0.846691    1.041801
C       1.575611   -0.137888    0.060040
C       2.045967    0.817292   -1.057209
C       1.433345    0.658414   -2.442642
O       0.024253    0.494966   -2.438154
C      -0.443233   -0.392649   -1.434904
C       0.036481    0.043237   -0.044178
H      -0.359356    1.919724    1.081725
H      -0.541638    2.098308   -0.685779
H       1.946742    2.812623    0.163414
H       1.977613   -1.139270    0.217619
H       3.136305    0.848228   -1.111038
H       1.633124    1.532073   -3.072369
H       1.912809   -0.211678   -2.925176
H      -1.534654   -0.367899   -1.505402
H      -0.116926   -1.426393   -1.646184
H      -0.506472   -0.484988    0.742432
