13

C      -0.022474    1.476939    0.010238
C      -0.013280   -0.023664    0.002097
N      -0.007391   -0.633904   -1.190365
C       0.022682   -1.949126   -1.166663
F       0.030001   -2.558747   -2.339771
C       0.046712   -2.719240   -0.012972
C       0.035115   -1.961821    1.149242
F       0.054948   -2.584190    2.315489
N       0.005358   -0.646897    1.187653
H       1.008936    1.849519    0.002269
H      -0.521468    1.859001   -0.881486
H      -0.504617    1.849385    0.915150
H       0.068050   -3.799129   -0.019003
