17

C      -0.187343    1.376545   -0.024750
O       0.021920   -0.017029    0.010804
C       0.628032   -0.509433   -1.158553
C       0.786649   -2.024153   -0.985818
C       1.426546   -2.672115   -2.162660
C       2.586359   -3.364333   -2.336823
N       2.651720   -3.720142   -3.662207
N       1.646331   -3.304060   -4.286847
O       0.808443   -2.606891   -3.343428
H       0.759947    1.928096   -0.129502
H      -0.848725    1.667856   -0.855303
H      -0.658728    1.658582    0.919337
H       0.012922   -0.293125   -2.046452
H       1.613229   -0.040264   -1.320271
H       1.388568   -2.224416   -0.095471
H      -0.204523   -2.458857   -0.815409
H       3.355522   -3.629440   -1.632158
