15

O      -0.012589    1.456098   -0.041624
C       0.074247    0.042390   -0.035084
C       0.731490   -0.503785    1.227127
C      -0.067230   -1.328343    1.903475
C      -1.388654   -1.469316    1.198442
O      -2.092840   -0.187108    1.095850
C      -1.304983   -0.629274   -0.011357
C      -2.198386   -2.641670    1.334884
C      -2.849877   -3.641428    1.477737
H      -0.629901    1.683673    0.666475
H       0.631098   -0.229270   -0.938589
H       1.710245   -0.162058    1.542635
H       0.144180   -1.823152    2.842585
H      -1.850025   -0.843960   -0.925478
H      -3.433216   -4.521459    1.593745
