14

C       0.001953    1.779042    0.165621
C      -0.048141    0.274942   -0.048089
O       0.556127   -0.030596   -1.302510
C       0.050941   -1.065826   -2.018967
O       0.535479   -1.422105   -3.046328
C       0.704629   -0.492645    1.044601
F       0.110532   -0.300792    2.231499
F       0.695595   -1.808126    0.786887
F       1.975275   -0.101876    1.146771
H       1.035176    2.129902    0.123318
H      -0.572905    2.280606   -0.615270
H      -0.421070    2.036449    1.139310
H      -1.082622   -0.091171   -0.023827
H      -0.849039   -1.511152   -1.555794
