22

C       0.078056    1.349016   -0.049460
N       0.061861   -0.097534   -0.092133
C      -1.062402   -0.661477   -0.024823
O      -1.151950   -2.002965   -0.058714
C      -2.457073   -2.628979    0.019301
C      -3.140470   -2.319112    1.354743
C      -3.326760   -2.244810   -1.181748
C      -2.082526   -4.118209   -0.051627
O      -3.275724   -4.881282    0.013758
H       0.685803    1.687447    0.797952
H       0.554189    1.740651   -0.956063
H      -0.920989    1.808592    0.039444
H      -2.016609   -0.124540    0.063220
H      -3.474045   -1.279513    1.413465
H      -4.012749   -2.966078    1.471594
H      -2.452439   -2.510222    2.183551
H      -2.768162   -2.385410   -2.111806
H      -4.210280   -2.886542   -1.207056
H      -3.659538   -1.204517   -1.130895
H      -1.535056   -4.294134   -0.988483
H      -1.404953   -4.345783    0.783543
H      -3.041156   -5.811938   -0.031781
