21

C      -0.081359    1.331930   -0.206709
C       0.201891   -0.131155    0.039098
C       1.602827   -0.669768    0.038796
C       0.817931   -0.637413    1.346320
C       1.225419    0.338455    2.325570
C       1.548249    1.134557    3.168611
C       0.283047   -1.909794    1.960602
C       0.240110   -3.226528    1.227964
C       1.204786   -3.029506    2.371278
H       0.676026    1.965468    0.262131
H      -0.091310    1.548735   -1.280609
H      -1.055002    1.620957    0.203249
H      -0.547508   -0.812129   -0.356291
H       1.800339   -1.632298   -0.419445
H       2.417327    0.040803   -0.047935
H       1.840450    1.837136    3.908825
H      -0.553481   -1.725574    2.629443
H      -0.627902   -3.857340    1.385250
H       0.647931   -3.290231    0.225171
H       2.255088   -2.922650    2.122157
H       1.016667   -3.540484    3.308750
