20

C      -0.156498    1.578855   -0.071567
C       0.266884    0.108603   -0.003751
N       0.790235   -0.395537   -1.252708
C       0.177525   -0.601191   -2.571071
C       1.550295   -1.141934   -3.052109
O       2.095939   -0.406947   -4.106456
C       3.411425   -0.821628   -4.441125
C       2.050830   -0.796103   -1.614616
O       3.097160   -0.831130   -1.015566
H       0.691283    2.214798   -0.341683
H      -0.948307    1.731324   -0.811929
H      -0.539458    1.907045    0.899540
H       1.065608   -0.027332    0.732051
H      -0.581417   -0.513224    0.313455
H      -0.651761   -1.316731   -2.576079
H      -0.115279    0.319906   -3.083971
H       1.562517   -2.223014   -3.259013
H       4.095820   -0.711814   -3.591834
H       3.424533   -1.871823   -4.771543
H       3.743385   -0.185862   -5.264642
