16

O       0.004320   -0.000093    0.087368
C       0.006493    1.202737   -0.009343
N      -1.101929    2.037373   -0.077174
C      -0.647536    3.436140    0.032661
C       0.624936    3.348807   -0.835564
C       1.212872    2.177286   -0.019319
C       1.157449    2.753424    1.414334
O       1.246040    4.182592    1.517916
C      -0.052134    3.579789    1.453231
H      -1.987046    1.716789    0.285697
H      -1.414770    4.148695   -0.266941
H       0.389588    3.074494   -1.864384
H       1.234837    4.248350   -0.801685
H       2.148425    1.722732   -0.335840
H       1.533504    2.187217    2.259544
H      -0.685672    3.693466    2.327870
