16

C      -0.019477    1.552189    0.179830
C      -0.008827    0.064932    0.035565
C       0.003444   -0.754407   -1.088679
N       0.009774   -2.046193   -0.723440
N       0.001668   -2.037191    0.606524
N      -0.009351   -0.780191    1.082426
N       0.009216   -0.404342   -2.451185
H       0.004232    0.587641   -2.659733
C       0.020402   -1.268160   -3.428761
N       0.025922   -0.952313   -4.732884
H       0.866728    2.027282   -0.262355
H      -0.903626    2.016140   -0.278026
H      -0.030433    1.802458    1.243070
H       0.025167   -2.311637   -3.131612
H       0.035593   -1.683966   -5.420630
H       0.022976   -0.001901   -5.064283
