19

C       0.812233    1.077234    0.379590
C       0.347223   -0.276338    0.111623
C      -0.032113   -1.397947   -0.109048
C      -0.531996   -2.744378   -0.379195
C      -2.001265   -2.751188   -0.843731
C       0.362559   -3.539257   -1.345603
O      -0.077717   -4.454106   -2.007130
C       1.842534   -3.205380   -1.431234
O       2.523233   -4.121077   -2.236185
H       1.864129    1.197831    0.098561
H       0.231481    1.815027   -0.184510
H       0.722195    1.325127    1.442754
H      -0.471430   -3.324103    0.557465
H      -2.639632   -2.314639   -0.072766
H      -2.114953   -2.164009   -1.758603
H      -2.321779   -3.774013   -1.047655
H       1.929237   -2.176289   -1.815515
H       2.257203   -3.179309   -0.410775
H       1.836033   -4.708061   -2.589646
