18

C      -0.132066   -1.151128   -0.388874
C      -0.050861    0.014605   -0.108709
C       0.078664    1.428890    0.237125
C       1.497166    1.931736    0.127337
C       2.689926    1.647864    1.024304
N       3.391314    2.853792    0.427300
C       3.612740    2.385950   -1.000674
C       2.109816    2.410305   -1.208533
C       1.995767    3.338776   -0.031668
H      -0.213220   -2.180114   -0.637649
H      -0.574804    2.026605   -0.412293
H      -0.288660    1.587341    1.260338
H       2.473801    1.840416    2.079434
H       3.236654    0.703593    0.924828
H       4.130399    3.169257   -1.560640
H       4.162228    1.442126   -1.090852
H       1.526342    2.404464   -2.121325
H       1.577598    4.322204    0.131468
