18

C       0.063491    1.426400    0.018280
N      -0.038480   -0.014404    0.021310
C      -0.026844   -0.801114   -1.120775
C      -0.021221   -2.121941   -0.732597
N      -0.110200   -3.259719   -1.562444
C      -0.012719   -2.134046    0.691446
C      -0.016051   -0.824771    1.129284
C       0.001956   -0.286099    2.522262
H       1.100852    1.771821    0.121087
H      -0.335592    1.813652   -0.922130
H      -0.522558    1.853565    0.836274
H      -0.039702   -0.350014   -2.100267
H       0.214913   -3.072522   -2.502932
H       0.423002   -4.036725   -1.191478
H      -0.028784   -3.008111    1.326259
H       0.890219    0.324812    2.729055
H      -0.875169    0.335239    2.745010
H       0.002258   -1.115884    3.232759
