19

C      -0.076598    1.572544    0.088230
C       1.436515    1.433731    0.006096
C       1.208903    0.188819    1.015291
C      -0.028480    0.006108    0.035625
C      -1.278430   -0.482344   -0.776734
C      -0.340450   -0.222147   -2.054526
O       0.272863    1.102483   -2.319607
C       1.480005    0.816315   -1.462538
C       0.842360   -0.500647   -1.169239
H      -0.429362    1.864948    1.081164
H      -0.592878    2.133154   -0.684193
H       2.126458    2.239140    0.264790
H       1.937180   -0.625365    1.046391
H       1.008566    0.559889    2.022088
H      -1.489268   -1.558336   -0.777180
H      -2.204406    0.075122   -0.614998
H      -0.614442   -0.699827   -2.997179
H       2.387795    0.970715   -2.047779
H       1.331245   -1.459509   -1.014009
