16

C      -0.104715    1.375513    0.009438
O      -0.054359   -0.053108    0.004152
C      -1.209898   -0.702334    0.012459
N      -1.351906   -1.987001    0.010543
C      -2.736699   -2.158105    0.021692
C      -3.343284   -3.519567    0.023423
O      -4.753280   -3.376532    0.035269
C      -3.348426   -0.955595    0.029869
O      -2.353942    0.013975    0.023758
H       0.934557    1.703180    0.001649
H      -0.623358    1.753654   -0.876578
H      -0.608086    1.747587    0.906760
H      -2.993729   -4.070801   -0.864525
H      -2.979329   -4.074972    0.902950
H      -5.142764   -4.254879    0.036482
H      -4.364600   -0.609528    0.039332
