18

C      -0.078928    1.417491   -0.037595
O      -0.047158   -0.003358   -0.018503
C      -1.288415   -0.595650    0.072331
C      -1.093311   -2.097216   -0.063491
O      -2.310026   -2.818402    0.172449
C      -3.189565   -2.368671    1.112455
N      -4.077220   -3.111232    1.619871
C      -3.149363   -0.889212    1.444210
O      -1.853766   -0.329155    1.344510
H       0.953017    1.751345   -0.157720
H      -0.678208    1.786608   -0.882470
H      -0.488972    1.818757    0.894512
H      -1.977896   -0.214330   -0.709263
H      -0.769277   -2.365307   -1.071058
H      -0.329738   -2.409383    0.658073
H      -4.001673   -4.060218    1.247099
H      -3.847199   -0.370771    0.764239
H      -3.499568   -0.745070    2.465744
