24

C      -0.148133    1.527655    0.147801
C      -0.035477    0.002939    0.064951
C       0.666500   -0.552164   -1.200562
C       0.681792   -2.090939   -1.142421
C       0.011701   -0.057060   -2.512281
C      -1.467848   -0.403491   -2.697243
N       2.061734   -0.058415   -1.257523
C       3.035442   -0.276713   -0.338894
O       2.925176   -0.907285    0.694421
H       0.831798    2.005319    0.049490
H      -0.802009    1.941566   -0.627017
H      -0.562955    1.825049    1.115531
H       0.521867   -0.368031    0.928965
H      -1.034088   -0.444702    0.121840
H      -0.334977   -2.486479   -1.070526
H       1.151053   -2.506907   -2.039939
H       1.245283   -2.425287   -0.270183
H       0.131847    1.031968   -2.572410
H       0.584617   -0.477481   -3.349588
H      -2.091582    0.040095   -1.915793
H      -1.824841   -0.021543   -3.658391
H      -1.638240   -1.483585   -2.690422
H       2.322520    0.490731   -2.061779
H       3.989024    0.203933   -0.642782
