15

O      -0.180089    0.146253   -0.495483
C      -0.110046    1.270034   -0.102063
C      -1.117511    2.278664    0.469085
C       0.068341    3.277055    0.700616
C       1.076685    2.265269    0.088694
C       1.527468    2.915868   -1.189955
C       0.975007    4.122275   -1.381402
C       0.069107    4.474117   -0.258552
O      -0.577838    5.486191   -0.128408
H      -1.897634    2.612655   -0.220573
H      -1.598703    1.913795    1.380701
H       0.212248    3.582747    1.735660
H       1.895173    1.872576    0.698225
H       2.199771    2.412981   -1.876261
H       1.126578    4.778148   -2.228974
