17

O      -0.157582   -0.037357   -0.055630
C      -0.112923    1.158605   -0.020143
C      -1.286039    2.167380    0.100077
C      -0.746564    3.408131    0.945744
C       0.244977    3.429228   -0.230599
C      -0.923376    3.016714   -1.159612
O       1.372206    4.161083   -0.720697
C       2.008413    2.879814   -1.056611
C       1.059047    2.159563   -0.056941
H      -2.279352    1.758550    0.266064
H      -1.496730    4.202779    0.961915
H      -0.346360    3.226749    1.945684
H      -0.702728    2.490127   -2.091826
H      -1.632059    3.828780   -1.332785
H       1.866543    2.632713   -2.113690
H       3.070711    2.881729   -0.805587
H       1.549567    2.129455    0.922650
