20

C      -0.028978    1.544242    0.155579
C      -0.085546    0.024040   -0.012052
C       0.710471   -0.474023   -1.240871
C       0.820116   -2.009372   -1.325219
O       0.880188   -2.609821   -0.049234
C      -0.442805   -2.372311   -2.128129
O      -0.653300   -1.263819   -3.010057
C       0.000302   -0.151059   -2.541239
N      -0.013229    0.968660   -3.124731
H       1.000042    1.879054    0.327817
H      -0.397282    2.057112   -0.736307
H      -0.630119    1.859180    1.014222
H       0.324492   -0.471466    0.872269
H      -1.129538   -0.304019   -0.091171
H       1.694389    0.000824   -1.236496
H       1.709085   -2.268348   -1.918409
H       1.139243   -3.529851   -0.155913
H      -0.343217   -3.275369   -2.736715
H      -1.297542   -2.488804   -1.450445
H      -0.589598    0.924259   -3.967577
