20

C       0.076514    1.539208    0.139603
C       0.032957    0.018285    0.296679
O       0.419337   -0.365103    1.616691
C      -1.342332   -0.563553   -0.082448
C      -1.387385   -2.060993   -0.183620
C      -1.829224   -2.777352   -1.275287
N      -1.725400   -4.114351   -0.983700
C      -1.220343   -4.270806    0.282249
C      -1.001808   -3.018977    0.804544
H       1.045607    1.924890    0.467579
H      -0.083419    1.837622   -0.901611
H      -0.704443    2.016066    0.746002
H       0.793929   -0.434779   -0.349043
H      -0.215962    0.027566    2.226429
H      -2.068953   -0.198992    0.661698
H      -1.654256   -0.129382   -1.040256
H      -2.211762   -2.442296   -2.226815
H      -1.978509   -4.862733   -1.603591
H      -1.056230   -5.252377    0.697310
H      -0.586203   -2.793313    1.772738
