17

C      -0.032307    1.504406    0.042208
C      -0.008813    0.014311   -0.019808
C      -0.020752   -0.785067   -1.096523
C       0.013245   -2.193015   -0.663260
O       0.015484   -3.211170   -1.296011
O       0.045871   -2.189768    0.721028
C       0.034112   -0.857281    1.176303
C       0.812898   -0.561771    2.435544
C      -0.694032   -0.587250    2.471068
H       0.855118    1.893464    0.555110
H      -0.064504    1.939127   -0.958803
H      -0.905593    1.863981    0.598993
H      -0.050144   -0.501647   -2.138243
H       1.343337   -1.403152    2.865269
H       1.322243    0.392526    2.510524
H      -1.231249    0.349338    2.570750
H      -1.174897   -1.445751    2.924605
