18

C       0.018286    1.378494    0.109509
N      -0.169838   -0.002508   -0.280329
C       0.678410   -0.641723   -1.124074
O       1.660695   -0.166943   -1.652219
O       0.268038   -1.930739   -1.301601
C       1.067317   -2.678341   -2.209643
C       2.416217   -3.205408   -1.691873
O       2.001995   -4.572211   -1.921984
C       0.664140   -4.157589   -2.264988
H       0.919141    1.739343   -0.387897
H      -0.829585    2.000793   -0.198182
H       0.148264    1.474639    1.193303
H      -0.948432   -0.529558    0.077584
H       1.122858   -2.159811   -3.167359
H       3.303142   -2.934905   -2.272512
H       2.591634   -2.995453   -0.629707
H      -0.071250   -4.433411   -1.498524
H       0.344831   -4.547200   -3.237810
