19

C       0.047825    1.639970   -0.085746
C       0.114468    0.126777    0.113131
O       0.800926   -0.223801    1.301465
C      -1.292174   -0.545587    0.073199
C      -1.164954   -2.086459    0.022119
C      -0.689579   -2.580073   -1.328341
O       0.126861   -3.445800   -1.499991
C      -2.080380   -0.125252    1.229518
C      -2.679468    0.213348    2.216510
H       1.052975    2.064016   -0.022251
H      -0.375621    1.893289   -1.063484
H      -0.575574    2.105637    0.684892
H       0.709701   -0.316179   -0.694693
H       0.269082    0.094852    2.042171
H      -1.802066   -0.206082   -0.840048
H      -0.488561   -2.441452    0.802121
H      -2.153293   -2.534034    0.192423
H      -1.185970   -2.081890   -2.197141
H      -3.237809    0.512757    3.069277
