16

C      -0.005358    1.437704    0.024422
N       0.000117   -0.010670   -0.033117
C       0.006422   -0.785188   -1.160876
C       0.009479   -2.099244   -0.733158
N      -0.056409   -3.251365   -1.516605
C       0.003882   -2.005531    0.691157
C      -0.005187   -3.106879    1.649192
O       0.000625   -3.007432    2.855102
N       0.001798   -0.716247    1.085295
H       0.883631    1.845804   -0.465933
H      -0.898756    1.838470   -0.463834
H      -0.005267    1.719106    1.076396
H       0.005280   -0.351267   -2.147743
H       0.279902   -3.121370   -2.460634
H       0.385292   -4.058832   -1.100545
H      -0.022377   -4.113281    1.166798
