21

C      -0.082473    1.548574   -0.066727
C       0.021542    0.018446   -0.068264
C       0.772014   -0.508646   -1.252825
O       0.264810   -0.207834   -2.598911
C       1.464449   -1.002051   -2.825199
C       2.278314   -0.370518   -1.662508
C       2.634194   -1.751625   -1.072465
C       1.207678   -1.976300   -1.627940
C       0.337443   -3.199730   -1.626461
H       0.907327    2.010954    0.003117
H      -0.551634    1.900833   -0.989134
H      -0.679416    1.898901    0.780244
H       0.521118   -0.335249    0.842554
H      -0.981687   -0.425937   -0.069645
H       1.762348   -1.218113   -3.851577
H       2.863961    0.547775   -1.702432
H       3.441373   -2.300072   -1.567600
H       2.752758   -1.807343    0.014012
H       0.124450   -3.537609   -0.606217
H      -0.615339   -2.980449   -2.120037
H       0.814756   -4.029575   -2.158940
