13

N      -0.037344    1.437988    0.154834
C       0.004304    0.043114    0.041367
C      -1.040661   -0.838662   -0.000597
O      -0.586835   -2.123940   -0.024836
C       0.774982   -2.066234   -0.006185
C       1.186443   -0.760404    0.037976
C       1.490591   -3.275798   -0.031008
C       2.115668   -4.305534   -0.052626
H       0.718926    1.893813   -0.338580
H      -0.918730    1.835347   -0.142361
H      -2.110711   -0.715758   -0.008574
H       2.209222   -0.419026    0.070246
H       2.665515   -5.213610   -0.070593
