21

C      -0.000104    1.464330    0.096742
C       0.000942   -0.038263   -0.035137
C       1.039222   -0.727358   -0.929137
C       0.379724   -2.070950   -1.338378
C      -0.751392   -2.234430   -0.321099
C      -1.691421   -3.401245   -0.480567
O      -0.112657   -2.229899    1.015265
C      -0.466599   -0.857062    1.155805
C      -1.309384   -0.808502   -0.078938
H       0.957233    1.826745    0.488667
H      -0.168220    1.949985   -0.871756
H      -0.786344    1.806165    0.778685
H       1.268689   -0.105684   -1.800605
H       1.977903   -0.890264   -0.390205
H      -0.036387   -2.017805   -2.351463
H       1.073019   -2.916459   -1.300842
H      -1.138694   -4.344839   -0.427976
H      -2.445022   -3.401764    0.311319
H      -2.200292   -3.354629   -1.449381
H      -0.605537   -0.464239    2.157656
H      -2.300164   -0.425138   -0.285495
