17

C      -0.082680    1.497950    0.030547
C       1.297782    0.881032    0.053815
C       2.074567    0.799168    1.338514
O       2.737286   -0.471976    1.492075
C       1.999881   -1.611682    1.584812
N       0.771096   -1.875100    1.468252
C      -0.257699   -0.888704    1.133751
C       0.077343    0.000686   -0.053044
H      -0.468995    1.917283    0.954544
H      -0.380530    2.040393   -0.859670
H       1.905406    0.991869   -0.839000
H       2.885082    1.531898    1.369469
H       1.435595    0.977676    2.209546
H       2.690787   -2.425664    1.809040
H      -1.174926   -1.445729    0.914764
H      -0.491335   -0.282297    2.017942
H      -0.095440   -0.454988   -1.023165
