18

C      -0.146522    1.554456   -0.010035
C       0.073216    0.043805    0.017751
C       0.884312   -0.516421   -1.176420
C       1.278067   -1.934845   -0.733649
C       1.444030   -1.820210    0.779138
O       2.035441   -2.576512    1.508166
C       0.823653   -0.483243    1.247496
O       1.912388    0.384949    1.554271
H       0.807430    2.084593    0.040036
H      -0.660021    1.851352   -0.930369
H      -0.757708    1.884090    0.836315
H      -0.904735   -0.458834    0.018666
H       0.314016   -0.498515   -2.108499
H       1.782218    0.093363   -1.324086
H       0.461581   -2.645878   -0.922077
H       2.175715   -2.347200   -1.199819
H       0.176406   -0.626443    2.123573
H       2.480768   -0.089366    2.173066
