25

C       1.031749    1.566245    0.286789
C       0.177712    0.344330   -0.078236
C       0.648418   -0.386149   -1.334026
C       1.928777   -1.188232   -1.252659
C       0.608875   -1.908155   -1.386316
C       0.063045   -2.788662   -0.281011
C       0.272167    0.363923   -2.617306
C       0.982406   -0.064096   -3.903808
O      -1.148218    0.332459   -2.793419
H       2.073781    1.281342    0.467432
H       1.028516    2.322675   -0.504458
H       0.652857    2.045136    1.195248
H       0.172296   -0.340038    0.775098
H      -0.862067    0.653262   -0.234624
H       2.616645   -1.196268   -2.090212
H       2.418919   -1.229425   -0.283787
H       0.422470   -2.320368   -2.376285
H       0.361162   -2.442024    0.711747
H      -1.031911   -2.835647   -0.301311
H       0.439454   -3.811863   -0.390972
H       0.489873    1.427563   -2.464979
H       0.566964    0.507768   -4.737487
H       2.057418    0.132468   -3.856145
H       0.838364   -1.127108   -4.127144
H      -1.409205   -0.595446   -2.795729
