20

C       0.003467    1.488204    0.010258
C       1.339215    0.754468   -0.007002
C       0.053298   -0.002097    0.001630
C      -0.553704   -0.971917    1.032596
C      -1.722819   -1.125493    0.013117
C      -0.574141   -0.960674   -1.027615
C       0.252009   -2.244311   -0.796908
C       0.267570   -2.252869    0.771552
H      -0.281720    1.996598    0.926511
H      -0.299793    2.006543   -0.894548
H       1.920724    0.784089   -0.923663
H       1.938811    0.774148    0.898203
H      -0.723634   -0.679299    2.069902
H      -2.282079   -2.066511    0.013530
H      -2.404220   -0.273026    0.024528
H      -0.764584   -0.656772   -2.058091
H      -0.231263   -3.130207   -1.219488
H       1.256273   -2.171179   -1.223438
H       1.280107   -2.184287    1.178846
H      -0.207319   -3.143375    1.193944
