18

C      -0.048431    1.427544   -0.064215
N       0.015953   -0.004622    0.160045
C      -1.173541   -0.719529    0.069733
C      -2.448496   -0.234947    0.049620
O      -3.345327   -1.299337    0.024424
C      -2.606317   -2.422587    0.013173
O      -3.238673   -3.600072   -0.025825
C      -4.663885   -3.572462   -0.001299
C      -1.272938   -2.157559    0.040863
H       0.958718    1.848114   -0.017143
H      -0.503255    1.700692   -1.030697
H      -0.643581    1.894623    0.728655
H       0.776900   -0.452316   -0.330292
H      -2.890818    0.743294    0.070457
H      -4.978937   -4.615949   -0.031078
H      -5.035733   -3.097191    0.912258
H      -5.065599   -3.037503   -0.867852
H      -0.472399   -2.878152    0.053870
