19

C      -0.066299    1.469004    0.069508
C       1.286060    0.804600    0.007915
C       0.017944   -0.034940    0.028952
C      -0.086297   -0.697158   -1.341158
O      -0.602843    0.168091   -2.400366
C       0.680914    0.233651   -3.065140
C       1.549988    1.415974   -2.585954
C       1.991908    0.576057   -1.334833
C       1.315970   -0.677587   -1.990817
H      -0.347180    1.925029    1.013091
H      -0.463543    1.960024   -0.809807
H       1.911013    0.868035    0.892031
H      -0.273924   -0.611929    0.899195
H      -0.638475   -1.641661   -1.318892
H       0.595198    0.024253   -4.133415
H       2.391719    1.584557   -3.265052
H       1.039693    2.366358   -2.413863
H       3.073437    0.528908   -1.201631
H       1.876876   -1.593686   -2.165850
