21

C      -0.006989    1.508052    0.031804
C      -0.013774   -0.024762    0.008040
C      -1.445925   -0.543342   -0.113057
O      -1.979016   -0.086016   -1.350144
C       0.959317   -0.611505   -1.078134
C       1.973388   -1.271506   -0.122202
C       1.094784   -2.061960    0.869436
C       0.749968   -0.601299    1.238327
O       2.132907   -0.248931    0.916442
H       1.012851    1.877432    0.156734
H      -0.420613    1.906555   -0.897660
H      -0.616670    1.889675    0.860152
H      -1.468297   -1.641950   -0.067403
H      -2.042376   -0.166700    0.734854
H      -2.889549   -0.387838   -1.415055
H       0.473310   -1.324091   -1.749493
H       1.422695    0.170382   -1.683401
H       2.914831   -1.648223   -0.522422
H       0.323409   -2.735886    0.490342
H       1.690877   -2.538647    1.648128
H       0.433732   -0.288896    2.234963
