19

C      -0.086913    1.579641    0.041849
C       1.452861    1.420761    0.010229
O       1.720120    0.795984    1.277347
C       0.770456   -0.307185    1.267315
C       1.535626   -1.624439    1.114437
C       2.608813   -1.450240    0.034379
O       2.113244   -0.821322   -1.147930
C       1.205144    0.220873   -0.962307
C      -0.019391    0.028626   -0.010623
H      -0.493364    2.044666    0.941287
H      -0.516125    2.019802   -0.860041
H       2.160847    2.228741   -0.164650
H       0.171996   -0.270695    2.182928
H       2.021601   -1.907657    2.054008
H       0.832485   -2.423377    0.850413
H       3.437425   -0.862279    0.445102
H       3.002243   -2.418080   -0.289689
H       0.912243    0.559975   -1.957424
H      -0.867072   -0.607640   -0.260767
