22

C       0.043241    1.565168    0.007331
C       0.142101    0.037375   -0.009406
C       0.637383   -0.549809    1.317770
C       0.744392   -2.069242    1.310921
C       1.844125   -2.749750    0.442376
C       2.024000   -3.788239    1.580448
O       3.293829   -4.314745    1.869855
C       1.346902   -2.787003    2.552416
H       1.017954    2.022769    0.210765
H      -0.312849    1.954408   -0.951669
H      -0.649448    1.908351    0.783977
H      -0.840190   -0.391408   -0.248628
H       0.814460   -0.278065   -0.817745
H       1.620397   -0.120954    1.560960
H      -0.037683   -0.237539    2.127268
H      -0.233517   -2.504307    1.071847
H       1.589284   -3.111636   -0.556425
H       2.730258   -2.106176    0.367325
H       1.381034   -4.657927    1.413278
H       3.890972   -3.575511    2.026064
H       2.100928   -2.154078    3.037659
H       0.672726   -3.177395    3.318656
