14

O      -0.094901    1.351757   -0.283743
C      -0.026750   -0.028678    0.053076
C      -1.422643   -0.563407    0.038688
N      -1.775074   -1.837272    0.038525
C      -3.141163   -1.825659    0.061423
O      -3.853244   -2.974987    0.066743
C      -3.635999   -0.546507    0.072549
N      -2.500287    0.250626    0.064617
H       0.754458    1.754007   -0.083995
H       0.585249   -0.599422   -0.659917
H       0.418956   -0.170835    1.050333
H      -3.204960   -3.689047    0.048393
H      -4.633702   -0.146751    0.075638
H      -2.448461    1.254773    0.031837
