15

O       0.187227    1.286896    0.346877
C       0.036640    0.007313   -0.224822
C      -1.395428   -0.493367   -0.114576
C      -1.653717   -1.902020    0.254347
O      -1.748426   -0.879629    1.238079
C      -2.398576    0.252800   -0.826488
C      -3.212945    0.888950   -1.456652
C      -4.137575    1.599231   -2.155890
C      -4.958704    2.229253   -2.777910
H      -0.097407    1.222836    1.265907
H       0.322771    0.098462   -1.277036
H       0.694504   -0.736201    0.249949
H      -2.595896   -2.358497   -0.041523
H      -0.809681   -2.583102    0.357969
H      -5.681018    2.785163   -3.322639
