16

O       1.026823    1.092936   -0.007752
C       0.459702   -0.144268   -0.009510
C       0.118996   -0.938256   -1.089114
C       0.211963   -0.715717   -2.572125
C       1.246805    0.248275   -2.946806
C       2.089028    1.051762   -3.250618
N      -0.440499   -2.093054   -0.567415
C      -0.454555   -2.033409    0.798607
C       0.099231   -0.834039    1.180464
H       1.323239    1.295529   -0.904862
H       0.431411   -1.667787   -3.077357
H      -0.747727   -0.373939   -2.991939
H       2.840946    1.746048   -3.535416
H      -0.768889   -2.867601   -1.115926
H      -0.848637   -2.846135    1.386819
H       0.244015   -0.476501    2.187250
