24

C       0.016202    1.591544    0.231365
C       0.099890    0.070511    0.077293
C       0.761812   -0.642467    1.271594
N       0.042881   -0.324898    2.505502
C       0.588929    0.339981    3.558103
O       1.731549    0.742562    3.624110
C       0.881361   -2.177698    1.089808
C       1.650998   -2.552062   -0.186733
C       1.543124   -2.836172    2.309195
H       1.010553    2.029181    0.366966
H      -0.434354    2.046520   -0.655917
H      -0.588102    1.874877    1.097582
H      -0.906485   -0.346236   -0.076601
H       0.666792   -0.164999   -0.828010
H       1.765602   -0.229844    1.421501
H      -0.925626   -0.598912    2.576188
H      -0.145832    0.478338    4.377354
H      -0.140910   -2.577518    0.997830
H       2.645608   -2.090138   -0.192514
H       1.792795   -3.636130   -0.238703
H       1.132017   -2.246468   -1.098499
H       0.993617   -2.632161    3.231036
H       1.593326   -3.921826    2.178974
H       2.566023   -2.466995    2.444788
