16

O      -0.012472    0.028630    0.140442
C      -0.010552    1.228657    0.031771
C      -1.183215    2.147153   -0.048964
C      -1.035077    3.530088    0.633278
C      -0.764925    3.358545   -0.833368
N       0.717523    3.473177   -0.596916
C       0.444862    3.867990    0.843798
C       1.400901    2.776497    1.356143
C       1.210079    2.144039   -0.054704
H      -2.186004    1.748088   -0.126489
H      -1.892078    3.957901    1.138856
H      -1.245194    3.735752   -1.727099
H       0.629364    4.911776    1.110163
H       2.412948    3.159756    1.501999
H       1.104876    2.178951    2.220649
H       2.062643    1.696827   -0.565066
