14

O      -0.016796    1.319309    0.161644
N       0.023225   -0.058427    0.114483
C      -1.120975   -0.614942    0.013215
C      -1.256045   -2.116378   -0.050224
C      -2.708694   -2.308869    0.404767
O      -3.385454   -1.082058    0.075034
C      -2.494990   -0.044766   -0.038691
N      -2.828233    1.165857   -0.186928
H       0.915810    1.547192    0.253623
H      -1.127971   -2.464034   -1.082058
H      -0.529618   -2.636309    0.575549
H      -3.228712   -3.122110   -0.104783
H      -2.776585   -2.469076    1.487533
H      -3.847915    1.245726   -0.186117
