16

N       0.086047   -1.117819    0.013042
C       0.034721    0.035699    0.014472
C      -0.086991    1.485534    0.014358
C      -0.717199    2.165484    1.248684
C      -0.479412    3.567563    0.631932
C       1.056928    3.450647    0.388455
O       1.242689    2.083566   -0.011192
C      -1.117416    3.382244   -0.734264
C      -0.890222    2.122566   -1.118483
H      -1.771653    1.925637    1.381645
H      -0.151565    1.967266    2.162011
H      -0.784391    4.435289    1.214282
H       1.411816    4.119053   -0.402449
H       1.627479    3.638606    1.305317
H      -1.561537    4.175862   -1.321104
H      -1.091698    1.647952   -2.068363
