16

O      -0.052711    1.311902    0.064981
N       0.054972   -0.077495    0.207055
C      -1.044196   -0.650825   -0.048952
C      -2.447822   -0.224876   -0.437212
C      -2.853740   -1.734309   -0.428113
O      -3.021035   -2.343433   -1.691566
C      -1.724273   -2.639403   -2.172457
O      -0.928274   -2.956831   -1.050729
C      -1.396645   -2.137031    0.000840
H       0.836466    1.611368    0.285445
H      -2.952415    0.393383    0.311489
H      -2.541096    0.267312   -1.409734
H      -3.694848   -2.010962    0.206989
H      -1.776948   -3.509285   -2.831602
H      -1.303100   -1.774833   -2.713492
H      -1.220657   -2.650775    0.946909
