22

C       0.412463    1.419728    0.201430
N       0.389205   -0.011958   -0.023442
C       0.503318   -0.565112   -1.266778
O       0.656704    0.101321   -2.276414
C       0.404848   -2.089903   -1.307646
C       1.376467   -2.696388   -2.310899
C       2.891009   -2.766610   -1.963694
C       2.939444   -4.157048   -2.652805
C       1.395120   -4.237106   -2.509542
H       1.231279    1.705706    0.871131
H       0.562296    1.895159   -0.768592
H      -0.531075    1.774819    0.631698
H       0.267144   -0.624405    0.765147
H       0.559026   -2.523962   -0.311374
H      -0.624885   -2.335549   -1.602189
H       1.242668   -2.185966   -3.268259
H       3.536987   -1.975099   -2.349659
H       3.050083   -2.850141   -0.882407
H       3.243722   -4.077672   -3.700272
H       3.534773   -4.940547   -2.178203
H       1.105910   -4.762653   -1.592567
H       0.819328   -4.651508   -3.341244
