17

O      -0.023945    1.218112    0.151368
C      -0.101864   -0.162710   -0.024625
C      -1.472039   -0.737914   -0.071013
C      -2.702735    0.138244    0.097382
C      -3.046061    0.303430    1.566969
O      -4.125004    0.072041    2.046159
C      -0.616884   -0.733505   -1.352739
C      -0.916729    0.165518   -2.489949
O      -0.745019   -0.145706   -3.644890
H       0.790054    1.536159   -0.253685
H       0.682863   -0.736507    0.466417
H      -1.577451   -1.728707    0.362075
H      -2.507812    1.142297   -0.294129
H      -3.569510   -0.279193   -0.421958
H      -2.200519    0.670492    2.191623
H      -0.214210   -1.691750   -1.663550
H      -1.300754    1.171654   -2.223134
