17

C      -0.038670    1.476115    0.020052
C      -0.031964   -0.022271    0.016346
N      -0.069482   -0.620602   -1.140614
N      -0.063296   -1.951587   -1.137975
N      -0.022753   -2.773339   -0.083672
C       0.015733   -2.221716    1.094709
C       0.062016   -3.113220    2.293621
C       0.015355   -0.767151    1.278844
N       0.054648   -0.278484    2.472453
H       0.858727    1.870937    0.511695
H      -0.076201    1.851945   -1.003056
H      -0.903046    1.862949    0.573340
H      -0.092572   -2.394977   -2.040459
H       0.055643   -4.160764    1.989537
H       0.956374   -2.899277    2.887925
H      -0.789642   -2.906459    2.949913
H       0.049142    0.741873    2.449038
