17

O      -0.096449    0.004263    0.062119
C      -0.028755    1.195894    0.108421
O       1.074353    1.881571   -0.238528
C       1.046627    3.309614   -0.163758
C       2.191321    4.005147    0.540274
C       3.313946    4.195653   -0.485734
C       2.860680    3.540794   -1.790218
C       1.447427    4.081448   -1.441898
C       2.133429    5.132395   -0.477228
H      -0.856868    1.853759    0.440382
H       0.076836    3.642809    0.222397
H       2.371040    4.078383    1.604339
H       4.322484    4.399590   -0.150845
H       3.275877    4.061205   -2.656917
H       2.968589    2.458906   -1.907860
H       0.709970    4.286096   -2.214300
H       2.030082    6.198151   -0.345556
