21

C      -0.463010    1.460181   -0.034811
C       0.045460    0.022061   -0.026003
C       0.941054   -0.371931   -1.225805
O       1.692303    0.767891   -1.625909
C       1.846495   -1.526628   -0.706177
C       1.444786   -1.770669    0.764104
C       0.852645   -0.417573    1.231655
C       1.889467    0.527791    1.635473
C       2.749415    1.286710    1.997169
H       0.366549    2.167120    0.010365
H      -1.032591    1.664552   -0.946808
H      -1.121215    1.641255    0.821423
H      -0.817994   -0.655955   -0.057481
H       0.311841   -0.706263   -2.064178
H       2.302991    0.492512   -2.316127
H       1.762796   -2.433744   -1.311335
H       2.885378   -1.186726   -0.760116
H       0.658345   -2.531111    0.825145
H       2.277873   -2.105551    1.385439
H       0.173361   -0.561712    2.080047
H       3.505267    1.966163    2.303895
