23

C      -0.087402    1.692891    0.053687
C      -0.030228    0.178595    0.279349
C      -1.354363   -0.528251   -0.015383
C      -1.824938   -0.517198   -1.483143
C      -2.816336   -1.690850   -1.526277
O      -2.506076   -2.535470   -0.405358
C      -1.374651   -2.034962    0.270843
O      -0.178087   -2.598019   -0.208389
C      -0.081043   -3.992209    0.008027
H       0.866391    2.164150    0.310302
H      -0.304824    1.936800   -0.991487
H      -0.864484    2.159042    0.670480
H       0.755086   -0.267118   -0.338727
H       0.252701   -0.021403    1.320838
H      -2.144020   -0.086990    0.607818
H      -2.288425    0.425046   -1.782816
H      -0.972045   -0.704444   -2.142715
H      -3.854767   -1.355021   -1.414907
H      -2.746253   -2.270662   -2.453253
H      -1.505008   -2.294449    1.332306
H       0.885813   -4.312683   -0.386650
H      -0.125777   -4.234228    1.081336
H      -0.883484   -4.535320   -0.504649
