20

C       0.085337    1.338419   -0.174137
C       0.111270   -0.185466   -0.073912
O       0.794880   -0.754505   -1.209347
C       0.710250   -0.664892    1.232305
C      -0.164164   -1.050085    2.403792
C       0.614684   -2.111751    1.669809
C      -0.084957   -3.144815    0.807493
O       0.678344   -3.522623   -0.319299
H       1.099495    1.749348   -0.095373
H      -0.339218    1.653595   -1.130764
H      -0.510844    1.768617    0.636380
H      -0.910430   -0.565588   -0.171806
H       1.715430   -0.469859   -1.168880
H       1.642907   -0.162537    1.486285
H       0.144319   -0.760930    3.402167
H      -1.239445   -1.027022    2.250143
H       1.499993   -2.493572    2.171058
H      -0.249204   -4.057021    1.392580
H      -1.083465   -2.776734    0.517509
H       0.812261   -2.711557   -0.834372
