19

C      -0.377745    1.624897   -0.152075
C       0.052045    0.158212    0.031629
C       0.847432   -0.383872   -1.100969
C       2.111626   -0.877227   -1.260335
N       3.107555   -1.094393   -0.317560
C       4.494648   -1.087312   -0.767746
N       2.301866   -1.243317   -2.587695
C       1.172970   -0.968820   -3.157051
O       0.238208   -0.453475   -2.345197
H       0.493744    2.280255   -0.244417
H      -0.979247    1.738561   -1.058210
H      -0.976129    1.964868    0.698805
H       0.651658    0.057471    0.943978
H      -0.841261   -0.460937    0.193171
H       2.964294   -0.559151    0.526580
H       4.621131   -1.834763   -1.552209
H       4.824764   -0.117235   -1.170347
H       5.136444   -1.354358    0.075702
H       0.904366   -1.103815   -4.193175
