23

C      -0.217717    1.483526    0.031012
C       0.043308   -0.024976   -0.035014
O       0.834600   -0.358659   -1.177705
C       0.778306   -0.525495    1.175439
C       2.261997   -0.227535    1.454492
C       2.449259   -1.696731    1.951131
C       0.965949   -1.967482    1.675064
C       0.069805   -1.005931    2.415608
C       0.297663   -0.489218    3.821116
H       0.725827    2.032530    0.109642
H      -0.741455    1.830664   -0.867944
H      -0.839623    1.733839    0.896059
H      -0.926207   -0.549446   -0.089141
H       0.450646    0.083143   -1.941618
H       2.807333   -0.036449    0.529472
H       2.480599    0.574295    2.167333
H       3.107708   -2.268416    1.294106
H       2.787558   -1.835818    2.983242
H       0.572234   -2.881460    1.244590
H      -0.979817   -1.217465    2.211918
H       1.353301   -0.300502    4.031003
H      -0.243302    0.449305    3.986941
H      -0.059940   -1.213125    4.561757
