20

O      -0.407295    0.280497   -0.764594
C      -0.234915    1.371715   -0.268370
C      -1.179215    2.135477    0.666056
C      -0.615783    3.571459    0.717566
C       0.888214    3.366898    0.383287
N       0.872686    2.164057   -0.429330
C      -1.289712    4.483708   -0.289150
C      -2.561760    5.205960    0.070046
C      -1.274511    5.978615   -0.097917
H      -2.208351    2.080556    0.306552
H      -1.145796    1.644468    1.645323
H      -0.722164    4.010783    1.714041
H       1.297982    4.219313   -0.167766
H       1.487971    3.234269    1.295578
H       1.686068    1.800887   -0.900430
H      -1.215474    4.134741   -1.316782
H      -3.330611    5.311296   -0.687063
H      -2.947281    5.083028    1.077311
H      -0.803039    6.371304    0.797681
H      -1.163123    6.613210   -0.970057
