22

C      -0.115703    1.536154    0.044161
C       0.145415    0.040792   -0.008431
O       0.406813   -0.418473    1.307347
C       0.623476   -1.804863    1.384264
C       2.010498   -2.416049    1.032007
N       2.101359   -3.089123    2.376742
C       2.109500   -2.024563    3.400895
C       2.850672   -0.710029    3.291482
C       0.808068   -2.365201    2.783530
H       0.756040    2.066142    0.438472
H      -0.331411    1.920960   -0.957061
H      -0.969532    1.752785    0.692293
H      -0.727339   -0.491290   -0.422875
H       0.999797   -0.179083   -0.668904
H      -0.177016   -2.336871    0.850031
H       1.978245   -3.170864    0.244077
H       2.818626   -1.710171    0.820701
H       2.232504   -2.494338    4.376256
H       2.553880   -0.126959    2.420983
H       2.635736   -0.104153    4.177799
H       3.932933   -0.881177    3.262358
H       0.024573   -2.871538    3.339098
