19

O      -0.139159    1.439714    0.248989
C       0.033786    0.058713    0.049961
C      -1.355751   -0.567807   -0.003518
C      -2.233233    0.007865   -1.127972
C      -3.654990   -0.493932   -1.043691
O      -4.252967   -1.037618   -1.935801
C       1.004466   -0.405339   -1.070698
O       1.686204   -1.283047   -0.155228
C       1.023937   -0.692198    0.979375
H       0.725026    1.864558    0.244750
H      -1.244978   -1.650946   -0.124111
H      -1.840885   -0.397881    0.966131
H      -2.255189    1.099926   -1.018878
H      -1.838668   -0.231249   -2.119762
H      -4.140291   -0.320019   -0.053413
H       0.585310   -0.942741   -1.928282
H       1.656889    0.402007   -1.437678
H       1.683860   -0.014215    1.541357
H       0.613555   -1.444165    1.662772
