18

C      -0.367930    1.280865   -0.017585
N      -0.118896   -0.150825   -0.049921
C       0.078138   -0.858096    1.197375
C      -1.216265   -1.131700    1.966738
O      -2.009709   -2.089530    1.267712
C      -3.147684   -1.672151    0.671877
O      -3.851949   -2.404204    0.048874
C       0.018274   -0.786555   -1.256949
O      -0.093948   -0.259374   -2.340894
H       0.445107    1.804451    0.500166
H      -0.426001    1.627415   -1.049401
H      -1.309468    1.517873    0.491276
H       0.559032   -1.817724    0.983422
H       0.757027   -0.287213    1.845571
H      -0.981831   -1.560361    2.945767
H      -1.786286   -0.208054    2.127181
H      -3.347453   -0.595573    0.838537
H       0.248137   -1.861165   -1.127788
