14

O       0.051683   -0.058483   -0.001557
C       0.015616    1.151609    0.008513
C       1.238157    1.979785    0.001695
C       1.228492    3.338884    0.013365
C       2.473934    4.120999    0.006171
O       2.489876    5.346507    0.015944
C       3.676528    3.284072   -0.014821
C       3.609825    1.929161   -0.025602
N       2.412168    1.277996   -0.017576
H      -0.935525    1.717571    0.024638
H       0.285215    3.874143    0.028520
H       4.638774    3.780653   -0.021595
H       4.487870    1.294109   -0.041041
H       2.335685    0.270085   -0.025086
