19

C      -0.006593   -1.269257    0.008347
C      -0.041261   -0.068243    0.054272
C      -0.046216    1.388571    0.112723
C       1.368396    2.006261   -0.032028
C       2.035345    1.739658   -1.369237
C       2.508360    2.855061   -1.929194
C       2.179853    4.064490   -1.117967
C       0.696718    4.354440   -0.992114
C       1.392431    3.534923    0.068250
H       0.008497   -2.330046   -0.032861
H      -0.699676    1.786739   -0.672465
H      -0.478724    1.712888    1.067564
H       1.981070    1.578567    0.774136
H       2.085694    0.743642   -1.792943
H       3.033222    2.908765   -2.876558
H       2.887652    4.881320   -1.030769
H       0.401838    5.359693   -0.708731
H       0.029859    3.869764   -1.697493
H       1.502583    3.981644    1.049463
