21

C      -0.081196    1.703530   -0.199180
C       0.042304    0.180492   -0.072703
C      -1.304588   -0.522616    0.156785
C      -1.360460   -2.069773   -0.027234
C      -0.012364   -2.808046    0.084257
C      -2.295423   -2.515201    1.073968
C      -2.587502   -1.548448    1.949632
C      -1.925089   -0.285457    1.549806
O      -1.885206    0.741119    2.191775
H       0.900191    2.158412   -0.366605
H      -0.721588    1.974127   -1.046961
H      -0.517187    2.132667    0.704229
H       0.497062   -0.220286   -0.986724
H       0.729869   -0.064236    0.745459
H      -2.030061   -0.087879   -0.546858
H      -1.791460   -2.322482   -1.004772
H       0.479887   -2.594301    1.037793
H      -0.165818   -3.890443    0.023657
H       0.666221   -2.522876   -0.723876
H      -2.636948   -3.544127    1.139039
H      -3.189127   -1.630566    2.845835
