21

C      -0.975994    1.065174    0.256709
C      -0.198555   -0.236214    0.158584
O       0.729721   -0.216990   -0.953410
C       1.870621   -0.320748   -0.082511
C       0.973711   -0.519358    1.154936
C       1.179083    0.355948    2.371812
C       0.168546    0.188344    3.487374
C       2.531922    0.832233    2.705141
O       1.576251    1.711776    2.107196
H      -0.312711    1.912930    0.440166
H      -1.504688    1.232219   -0.687253
H      -1.723715    1.022349    1.055908
H      -0.893812   -1.080232    0.055999
H       2.521257   -1.161089   -0.351005
H       2.456263    0.606666   -0.073779
H       0.957347   -1.562031    1.486790
H       0.198558   -0.832754    3.882826
H       0.380168    0.884311    4.302700
H      -0.848085    0.379733    3.131803
H       2.782174    1.052406    3.742208
H       3.379201    0.564462    2.075249
