14

C       0.042542    1.372703    0.063953
O       0.098443   -0.054704   -0.009900
C       0.628633   -0.571476   -1.114136
N       1.074892    0.154528   -2.079362
C       1.602318   -0.503816   -3.173936
C       1.652593   -1.842167   -3.239843
O       1.184760   -2.620029   -2.227206
C       0.640393   -2.063293   -1.092339
O       0.233183   -2.765183   -0.213107
H       1.046626    1.801919    0.005661
H      -0.559010    1.778347   -0.754215
H      -0.416431    1.594734    1.026887
H       1.976819    0.108615   -3.984146
H       2.048603   -2.425838   -4.059437
