17

C       0.030957    1.549131   -0.108466
C       0.004406    0.055856    0.001691
C       0.424275   -1.082526   -0.948727
C       1.208567   -1.758689    0.168736
C       0.466593   -0.827620    1.198639
C      -0.779245   -1.585465    1.625484
O      -1.063091   -2.080794    2.674999
O      -1.569544   -1.709865    0.506354
C      -1.018659   -0.892595   -0.515724
H       1.044903    1.944115    0.017883
H      -0.331204    1.871410   -1.090129
H      -0.606941    2.014170    0.651879
H       0.701153   -1.036928   -1.995852
H       1.106454   -2.840411    0.301344
H       2.267387   -1.496577    0.125511
H       1.040685   -0.412709    2.022025
H      -1.757532   -0.597068   -1.248835
