21

C      -0.476653    1.423242   -0.158817
C      -0.195074   -0.083862   -0.027930
C       0.394638   -0.596743   -1.328180
O       1.401298   -1.254405   -1.421014
C       0.691352   -0.482387    1.164523
C       0.182714    0.074596    2.508328
C       0.738227   -2.013769    1.286876
C       2.081545   -2.632805    1.603492
O      -0.270262   -2.672716    1.164560
H       0.452993    2.002690   -0.174946
H      -1.018789    1.636766   -1.086157
H      -1.089548    1.785688    0.668930
H      -1.156305   -0.609115    0.076879
H      -0.182178   -0.312409   -2.237991
H       1.707965   -0.113932    0.988438
H       0.801631   -0.281800    3.338269
H       0.211634    1.166961    2.524508
H      -0.845340   -0.251203    2.694805
H       2.570337   -2.112521    2.434561
H       1.965708   -3.691525    1.838578
H       2.724275   -2.516481    0.724171
