18

C      -0.039880    1.377424    0.149693
N      -0.043330   -0.039609   -0.116940
C      -1.124544   -1.026221   -0.083940
C      -1.562593   -1.438090    1.347204
C      -0.446013   -2.525193    1.379524
C       0.012485   -2.135731   -0.051579
O       0.192039   -3.201433   -0.914904
C       0.995461   -0.942654   -0.091307
O       2.193090   -0.801928   -0.099458
H       1.001549    1.704686    0.200265
H      -0.548285    1.934449   -0.645223
H      -0.530343    1.609828    1.103686
H      -1.869729   -0.927717   -0.874693
H      -1.484743   -0.644439    2.094027
H      -2.571056   -1.855067    1.388741
H       0.313812   -2.453498    2.160388
H      -0.848142   -3.540634    1.373106
H       0.781078   -2.929553   -1.627189
