14

O       0.037262    0.018766   -0.178021
C       0.004715    1.212015   -0.084882
C      -1.257880    2.073997    0.093286
C      -0.787968    3.534123   -0.007411
C       0.736408    3.441264    0.043072
C       1.381586    2.743578    1.173205
N       1.180487    2.041815   -0.127396
H      -1.998509    1.797499   -0.660006
H      -1.696909    1.824834    1.064590
H      -1.087708    3.974299   -0.962498
H      -1.190021    4.173414    0.783586
H       1.311623    4.172861   -0.515806
H       2.422062    2.929111    1.418969
H       0.766110    2.432361    2.014458
