19

C       0.765450    0.351901   -0.459929
N      -0.369163   -0.268450    0.207519
C      -0.103343   -0.496284    1.617977
C      -1.610301    0.465155   -0.002589
C      -2.102660    0.355975   -1.430012
N      -2.210326    1.457700   -2.086803
O      -2.692045    1.271629   -3.373580
C      -2.426868   -0.929915   -1.948189
C      -2.712037   -2.026504   -2.354111
H       1.644166   -0.292991   -0.362481
H       0.552826    0.480001   -1.524054
H       1.020367    1.345255   -0.042757
H       0.060194    0.437274    2.190741
H      -0.941364   -1.032037    2.074687
H       0.793279   -1.114652    1.726031
H      -2.370995    0.029441    0.655740
H      -1.530804    1.539280    0.243459
H      -2.713235    2.171544   -3.718234
H      -2.957670   -2.992816   -2.720223
