21

C      -0.059960    1.542167   -0.004998
C      -0.021658    0.031374    0.043530
O      -1.195646   -0.591576   -0.409782
C       1.276509   -0.711794   -0.195847
C       0.650339   -0.662224    1.182526
C       1.342103   -0.091496    2.428635
C       1.243726   -1.514024    3.054595
C       0.193221   -1.894869    1.965440
O      -1.142898   -1.723215    2.402738
H       0.852737    1.979843    0.409568
H      -0.159407    1.896789   -1.038614
H      -0.915344    1.917449    0.565652
H      -1.251770   -0.442686   -1.360636
H       1.206412   -1.648243   -0.740761
H       2.188532   -0.146358   -0.364953
H       2.345380    0.320972    2.294582
H       0.724793    0.639389    2.958161
H       2.173419   -2.079766    2.950694
H       0.893027   -1.581744    4.087511
H       0.326434   -2.865584    1.469114
H      -1.325662   -2.409311    3.053222
