21

C      -0.341376    1.522495    0.200696
C       0.167692    0.099359   -0.042681
C       0.733613   -0.558829    1.219761
C       1.244610   -1.986029    0.978560
C       1.799982   -2.609950    2.232946
O       0.862364   -3.034196    3.223060
C       1.650751   -4.044511    2.570373
C       0.968034   -4.976545    1.713213
C       0.427240   -5.785498    1.007127
H       0.461845    2.173451    0.563645
H      -0.740803    1.966549   -0.716430
H      -1.139252    1.533870    0.951441
H      -0.647863   -0.520459   -0.437787
H       0.941371    0.113775   -0.822122
H       1.549527    0.060334    1.618370
H      -0.038043   -0.587225    1.999386
H       0.437124   -2.616729    0.592922
H       2.035594   -1.975954    0.216206
H       2.677757   -2.111864    2.652713
H       2.409087   -4.492073    3.212994
H      -0.058286   -6.496028    0.384605
