19

C      -0.034871    1.375826   -0.331047
O      -0.043451    0.111703    0.296511
C      -1.259277   -0.563634    0.177118
C      -1.679629   -1.132935   -1.192519
O      -0.717522   -2.130263   -1.561630
C      -1.742591   -2.496648   -0.640801
C      -1.278046   -2.037392    0.755017
C       0.041934   -2.589340    1.259390
O      -2.345796   -2.241510    1.660849
H       0.946048    1.821107   -0.150392
H      -0.192073    1.294903   -1.416429
H      -0.810221    2.039269    0.083538
H      -2.091090    0.002520    0.625492
H      -2.252395   -0.676995   -1.991909
H      -2.392291   -3.328431   -0.886113
H       0.807531   -2.502768    0.486995
H       0.385035   -2.025291    2.134106
H      -0.075689   -3.640055    1.542031
H      -2.065117   -1.924686    2.526186
