19

C       0.148677    1.530857   -0.174908
C       0.070369    0.035185    0.153808
C      -1.352030   -0.495513    0.116312
C      -2.002982   -0.838646   -1.255873
O      -1.100641   -2.002397   -1.380199
C      -1.591108   -2.027298    0.014975
C      -3.031112   -1.777321   -0.542554
C      -4.093458   -1.257335    0.289040
C      -4.989833   -0.838029    0.972897
H       1.179663    1.892887   -0.119236
H      -0.220060    1.735519   -1.185884
H      -0.451656    2.125764    0.522500
H       0.682247   -0.540061   -0.546843
H       0.482960   -0.139142    1.156052
H      -2.012414    0.026132    0.815329
H      -2.158090   -0.221319   -2.141280
H      -1.247829   -2.838284    0.658423
H      -3.361210   -2.588343   -1.194794
H      -5.780051   -0.466523    1.577381
