16

N       0.025234   -1.173464   -0.009240
C      -0.006373   -0.016138    0.016825
C      -0.045154    1.409314    0.052409
C      -0.691863    2.340439    1.128072
C      -0.934620    3.329189    0.012594
C       0.383475    3.345802    0.790818
C       1.221356    2.365221   -0.061767
C       0.883035    2.640253   -1.545417
C      -0.574258    2.342762   -1.122129
H      -1.228478    2.126986    2.041517
H      -1.617348    4.166608   -0.013233
H       0.720094    4.196095    1.366794
H       2.209444    2.069138    0.283820
H       1.111237    3.628863   -1.952792
H       1.280171    1.859925   -2.201355
H      -1.348300    2.024625   -1.817153
