24

C       0.099280    1.563833   -0.216100
C       0.086898    0.039553   -0.060867
C      -1.319596   -0.473814   -0.390285
C       1.163493   -0.735085   -0.833565
C       2.536544   -0.425837   -0.399811
N       1.749240   -1.371511    0.411752
C       0.749455   -0.580970    1.248197
C       1.376618    0.374940    2.261843
C      -0.102791   -1.601335    2.001299
H       1.087397    2.003215   -0.064098
H      -0.230634    1.842687   -1.223270
H      -0.587301    2.034942    0.496784
H      -1.617073   -0.118747   -1.383691
H      -1.376088   -1.564369   -0.404457
H      -2.060904   -0.103382    0.325406
H       0.960066   -1.328742   -1.721384
H       3.348467   -0.917597   -0.928223
H       2.794617    0.553970   -0.011034
H       1.991535    1.156032    1.811936
H       0.597159    0.871295    2.849959
H       2.009109   -0.190496    2.954532
H       0.499138   -2.059782    2.792376
H      -0.974726   -1.129989    2.466429
H      -0.444209   -2.405587    1.347831
