17

C      -0.293366    1.496555    0.072910
C       0.055025    0.031368   -0.000697
C       0.042779   -0.610460   -1.177740
N       0.378694   -1.960895   -1.404654
C      -0.033164   -3.078008   -0.693185
O      -0.120407   -4.169065   -1.215184
N      -0.333628   -2.897205    0.654840
C       0.210272   -1.934643    1.520625
C       0.389412   -0.635812    1.253206
H       0.511925    2.063255    0.557142
H      -0.455881    1.923782   -0.920202
H      -1.199657    1.666985    0.666809
H      -0.217915   -0.076876   -2.086963
H       0.521718   -2.214590   -2.370543
H      -0.548631   -3.790481    1.071507
H       0.473544   -2.332259    2.496034
H       0.795908   -0.020904    2.050667
