18

C       0.008641    1.484005   -0.142226
N      -0.062523    0.033865   -0.133160
C       0.520087   -0.627469   -1.036388
O       1.251168   -0.093830   -2.084489
C       1.765809   -1.156277   -2.909138
C       3.292378   -1.030241   -2.947637
O       3.693027    0.212769   -3.479101
C       1.247081   -2.409622   -2.265120
C       0.543291   -2.087370   -1.179786
H       0.360347    1.914291   -1.087035
H      -0.983294    1.889238    0.083726
H       0.677008    1.821692    0.660289
H       1.377546   -1.010255   -3.926868
H       3.684312   -1.192469   -1.931477
H       3.707574   -1.806118   -3.599854
H       3.269444    0.890594   -2.939754
H       1.446535   -3.399005   -2.654502
H       0.038965   -2.739296   -0.482189
