19

O       0.107081    1.421362    0.141438
C      -0.036754    0.037638    0.038777
C      -1.358621   -0.710702    0.006818
C      -2.688494   -0.057476   -0.325129
C      -2.784976    1.433168   -0.539498
C      -2.601662    0.506069   -1.725479
C      -1.200309    0.208805   -2.276674
O      -0.409400    1.379207   -2.574373
C      -0.465599   -0.640925   -1.232654
H       0.173714    1.750229   -0.768466
H       0.739018   -0.488943    0.594303
H      -1.405923   -1.616164    0.602001
H      -3.575647   -0.587937    0.002036
H      -3.771709    1.874664   -0.441319
H      -1.970039    2.054411   -0.201572
H      -3.430251    0.407966   -2.419270
H      -1.307455   -0.374455   -3.200907
H      -0.987708    2.023547   -2.995410
H       0.107733   -1.485721   -1.598487
