16

C       0.597915    1.623991   -0.648699
C      -0.076976    0.455181    0.099700
C      -0.037791   -0.784414   -0.673656
N       0.012100   -1.779937   -1.259809
C       0.519935    0.318952    1.523844
O       0.633342    1.303187    2.221788
N       0.873569   -0.943268    1.923445
C       1.398809   -1.223113    3.182238
N       1.708149   -2.415235    3.481335
H       1.639510    1.386951   -0.878821
H       0.072845    1.831579   -1.582990
H       0.568902    2.505104   -0.006949
H      -1.132383    0.710089    0.261091
H       0.771019   -1.729001    1.293099
H       1.487921   -0.328774    3.801126
H       2.077010   -2.460298    4.429522
