24

C       0.021985    1.634536    0.082521
C      -0.007377    0.105503   -0.012229
C       0.701795   -0.562733    1.172853
C       0.735217   -2.110698    1.184572
C      -0.687090   -2.699111    1.240361
C       1.486411   -2.661920   -0.041872
C       1.494117   -2.524066    2.458944
O       1.562517   -3.941864    2.533869
H       1.050994    2.011088    0.100139
H      -0.487022    2.097264   -0.768873
H      -0.471569    1.984803    0.996127
H      -1.049238   -0.231479   -0.063177
H       0.462054   -0.205387   -0.952767
H       1.736394   -0.191921    1.210903
H       0.224135   -0.217803    2.101400
H      -1.242233   -2.500269    0.319077
H      -0.644321   -3.781391    1.383234
H      -1.256554   -2.272085    2.074425
H       2.480274   -2.207383   -0.130930
H       1.619084   -3.742530    0.048999
H       0.942978   -2.463782   -0.970264
H       2.505137   -2.085641    2.435913
H       0.974307   -2.111741    3.339106
H       2.038420   -4.178044    3.334555
