16

C      -0.062529    1.470113    0.231539
C       0.011470   -0.006541   -0.075724
C       0.653384   -0.647736   -1.234215
C       1.921083    0.057575   -1.737680
C       1.866052    1.308919   -2.458944
C       1.829300    2.353940   -3.052093
C       2.367843   -0.013762   -0.242044
O       3.315980    0.351319    0.372363
N       1.249005   -0.829742    0.174102
H       0.765217    2.040788   -0.191873
H      -0.993503    1.878747   -0.174263
H      -0.069800    1.622883    1.315250
H      -0.845244   -0.563703    0.298188
H       0.215536   -1.499980   -1.740485
H       2.544831   -0.665461   -2.278191
H       1.797030    3.277095   -3.576323
