13

O      -0.049731    1.335782   -0.040005
N       0.062163   -0.058900   -0.066484
C      -1.068427   -0.619300    0.028332
C      -1.433532   -2.064907   -0.023360
O      -2.294011   -2.290825    1.124379
C      -2.873213   -1.716745   -0.050342
C      -2.566340   -0.200409    0.047019
O      -3.086091    0.478170    1.148251
H       0.868240    1.617487   -0.126623
H      -0.901616   -2.916142   -0.425558
H      -3.708205   -2.232778   -0.508292
H      -2.829900    0.365893   -0.850963
H      -2.894686   -0.071661    1.919362
