16

O       0.393136   -0.089452   -0.103566
C       0.229585    1.083663    0.056075
O       1.117287    2.007246   -0.345151
C       0.820939    3.407381   -0.099204
C       1.969952    4.070362    0.693672
C       2.777229    4.900743   -0.335963
C       1.867985    4.942978   -1.537738
C       0.805866    4.150611   -1.408751
H      -0.661120    1.525859    0.546507
H      -0.135133    3.452379    0.436932
H       1.547124    4.727853    1.458312
H       2.568518    3.313040    1.203345
H       3.015742    5.901556    0.040589
H       3.736394    4.433566   -0.593323
H       2.088967    5.547011   -2.411133
H       0.032022    3.991419   -2.150246
