25

C       0.016941    1.588769    0.173188
C      -0.045540    0.076058   -0.059604
C       0.682943   -0.447938   -1.335414
C      -0.006851    0.102006   -2.607139
C       2.073175    0.026896   -1.307204
C       3.210628    0.418168   -1.273201
C       0.711982   -2.023581   -1.316075
C      -0.677575   -2.671822   -1.214681
C       1.477933   -2.623026   -2.505359
H       1.050776    1.938903    0.233785
H      -0.482498    2.147308   -0.624317
H      -0.483803    1.844876    1.112151
H       0.382849   -0.437476    0.809671
H      -1.095349   -0.229177   -0.118967
H       0.033041    1.193200   -2.627209
H       0.483771   -0.258733   -3.513699
H      -1.058269   -0.199169   -2.638253
H       4.214475    0.763730   -1.248598
H       1.266485   -2.287188   -0.405824
H      -1.305408   -2.425398   -2.077518
H      -0.571512   -3.761431   -1.194766
H      -1.215699   -2.381944   -0.309332
H       2.456521   -2.153753   -2.631693
H       1.633879   -3.695163   -2.347956
H       0.921125   -2.512085   -3.442037
