21

C      -0.071883    1.546446   -0.021477
C      -0.016957    0.012533   -0.011849
C      -1.436189   -0.566261   -0.094136
C       0.919474   -0.553310   -1.142028
C       1.978654   -1.265768   -0.312281
C       1.312181   -1.937416    0.924909
O       2.494636   -1.670064    1.755542
C       2.276995   -0.443264    0.976294
C       0.739749   -0.518169    1.211382
H       0.929970    1.985270    0.035738
H      -0.544781    1.915505   -0.938450
H      -0.650960    1.926962    0.827512
H      -1.938319   -0.242606   -1.012716
H      -1.424940   -1.661434   -0.089583
H      -2.047873   -0.236113    0.753066
H       0.389342   -1.238183   -1.812203
H       1.345727    0.242929   -1.761331
H       2.807084   -1.784121   -0.794523
H       0.838075   -2.915377    1.016825
H       2.969400    0.385275    1.130340
H       0.360403   -0.307632    2.212123
