16

C      -0.204198    1.560998   -0.093988
C       0.003716    0.053122   -0.034882
C       1.248910   -0.490340   -0.770143
O       1.873183   -0.883204    0.467114
C       0.684684   -0.555747    1.227638
C       0.990719    0.302274    2.438841
H       0.719324    2.106521    0.123747
H      -0.535072    1.860477   -1.094394
H      -0.967051    1.891083    0.619056
H      -0.924563   -0.458236   -0.303218
H       1.066433   -1.348964   -1.430269
H       1.848259    0.251475   -1.314024
H       0.181816   -1.478413    1.554706
H       1.488962    1.233812    2.158528
H       0.071864    0.544125    2.984207
H       1.653097   -0.244064    3.117929
