18

C       0.040653    1.494544    0.102220
C       1.374048    0.808222    0.103298
C       0.071161   -0.019053    0.133746
N       0.466043   -0.760369   -1.083604
C       0.030601   -0.458561   -2.491663
C      -0.809016    0.781327   -2.812424
O       0.369647    1.631811   -2.812265
C       1.248250    0.496348   -2.663283
C       1.685621    0.087269   -1.218556
H      -0.224777    1.903832    1.073825
H      -0.276192    2.094904   -0.734224
H       2.104616    0.950208    0.889020
H      -0.383511   -0.564369    0.953655
H      -0.156975   -1.363132   -3.070916
H      -1.260538    0.748034   -3.812049
H      -1.564740    1.090595   -2.084530
H       1.998516    0.451518   -3.457181
H       2.631701   -0.467182   -1.205855
