23

C      -0.148653    1.694127    0.009292
C      -0.027284    0.169724    0.051224
O       0.558880   -0.269788    1.277247
C      -1.373429   -0.520217   -0.170176
C      -2.125532   -0.447843   -1.543428
C      -2.296880   -1.975059   -1.508994
C      -0.971695   -2.683590   -1.496314
C       0.244567   -2.319536   -2.325149
C      -1.461669   -2.051890   -0.216689
H       0.822070    2.159244    0.201430
H      -0.513588    2.039478   -0.963692
H      -0.854212    2.047152    0.772707
H       0.686404   -0.150851   -0.713308
H      -0.027975    0.002484    1.991935
H      -2.056091   -0.156924    0.611036
H      -3.068610    0.098140   -1.478830
H      -1.560628   -0.047525   -2.392392
H      -3.220379   -2.488027   -1.750929
H      -1.113469   -3.762691   -1.440901
H       0.296694   -1.255039   -2.563049
H       1.171854   -2.591399   -1.809404
H       0.223819   -2.859818   -3.278457
H      -1.633977   -2.666993    0.659055
