13

O      -0.143903    0.181373    0.616587
C      -0.112172    1.228076    0.038051
C      -1.252966    2.134597   -0.337512
C      -0.669305    3.273797   -0.768746
C      -0.204184    4.309044    0.242327
C       1.169814    3.498342    0.103318
C       0.770932    2.982358   -1.205680
N       1.133474    1.983575   -0.192381
H      -2.154158    2.079092    0.263639
H       0.007459    5.314329   -0.135283
H      -0.735896    4.352087    1.194910
H       2.129717    3.861062    0.454248
H       1.229006    2.995745   -2.186172
