17

C      -0.000969    1.604760   -0.214094
C       0.026597    0.121095   -0.058416
C       0.081446   -1.048377   -0.981263
O       1.192154   -1.686079   -0.348785
C       0.876877   -0.887264    0.816441
C      -0.455580   -1.526515    1.341144
C      -0.959743   -0.911372    2.553274
C      -1.358317   -0.396361    3.564548
C      -1.059383   -0.949027    0.051281
H       0.978242    1.994989   -0.512739
H      -0.725508    1.895343   -0.982373
H      -0.293495    2.094812    0.720629
H      -0.056187   -1.158618   -2.049145
H       1.722278   -0.692184    1.472457
H      -0.417696   -2.617880    1.432887
H      -1.716640    0.048567    4.459487
H      -2.105071   -0.877814   -0.219591
