18

C      -0.099913    1.504821    0.049134
C      -0.017603    0.016639    0.002473
C       0.013790   -0.781342   -1.068736
N       0.086004   -2.150633   -0.715040
C       0.003699   -2.292278    0.646340
O      -0.127753   -3.313588    1.285479
C       0.065963   -0.861203    1.238716
C       1.372814   -0.681545    2.024543
O      -1.061570   -0.663492    2.080992
H       0.778144    1.947909    0.535730
H      -0.176209    1.930172   -0.955706
H      -0.976065    1.824323    0.625152
H       0.006415   -0.511497   -2.115838
H      -0.067411   -2.917111   -1.350524
H       2.248849   -0.781030    1.375917
H       1.387838    0.306013    2.493254
H       1.433480   -1.444666    2.807006
H      -1.165832   -1.483600    2.583026
