17

O       0.268929    1.307254    0.418621
C       0.057472   -0.047025    0.094830
C      -0.737348   -0.874177    1.077958
C      -1.384270   -0.360869   -0.191895
C       1.146908   -0.650763   -0.710582
C       1.756534   -1.858336   -0.555262
O       2.720070   -2.041125   -1.496768
C       2.736606   -0.917986   -2.264031
C       1.802793   -0.033671   -1.835483
H       1.071161    1.353919    0.951368
H      -0.538216   -1.936591    1.163897
H      -1.006334   -0.382157    2.005407
H      -2.079165    0.466129   -0.100829
H      -1.603404   -1.068995   -0.982224
H       1.626749   -2.667725    0.143635
H       3.462462   -0.907729   -3.060359
H       1.590209    0.940816   -2.245114
