17

O      -0.249501    0.174415   -0.752771
C       0.371194    0.729796    0.118938
C       1.252756    1.932681   -0.073189
C       1.276695    2.793287   -1.365364
C      -0.085734    3.014407   -2.079931
C      -0.352647    4.283153   -1.217795
C       1.028267    4.096154   -0.507666
C       0.926812    3.226513    0.742085
O       0.698908    3.429278    1.896982
H       0.321677    0.382181    1.174558
H       2.268605    1.637640    0.229771
H       2.156911    2.666911   -1.993432
H       0.036483    3.243620   -3.140588
H      -0.799023    2.197134   -1.986647
H      -0.400506    5.208655   -1.794531
H      -1.220151    4.253271   -0.554354
H       1.696445    4.956290   -0.453680
