20

C       1.291992    0.066685   -0.353324
C       0.628640   -1.139310   -0.920560
N      -0.107529   -0.220916   -0.057526
C      -0.397715   -0.691444    1.285507
C      -0.704864    0.473273    2.280696
C      -2.142590    0.047413    2.646801
C      -2.024690   -1.473136    2.901110
C      -1.779434   -1.384505    1.378327
O      -2.707789   -0.260512    1.335437
H       2.025911   -0.097046    0.434917
H       1.476269    0.940644   -0.971478
H       0.317615   -1.163674   -1.960858
H       0.922987   -2.104821   -0.510244
H       0.398079   -1.357225    1.663647
H      -0.027641    0.506847    3.137967
H      -0.692851    1.436692    1.768200
H      -2.755579    0.715732    3.251330
H      -1.233513   -1.850479    3.555422
H      -2.988730   -1.927046    3.131102
H      -2.008076   -2.184182    0.674005
