21

C       0.118955    1.536445   -0.024902
C       0.065893    0.081726    0.011008
C       0.020220   -1.121023    0.031695
C      -0.019242   -2.578178    0.062063
C      -1.441394   -3.181418    0.038113
C      -2.322248   -2.623600    1.164271
O      -1.996250   -2.864762   -1.232843
C      -1.328262   -4.711168    0.143628
O      -2.631475   -5.237803   -0.092627
H       1.079521    1.890008   -0.416338
H      -0.669064    1.947033   -0.666001
H      -0.008771    1.968137    0.974199
H       0.523804   -2.976933   -0.803659
H       0.499611   -2.942448    0.959007
H      -2.449711   -1.547976    1.030029
H      -3.303078   -3.105711    1.146486
H      -1.872015   -2.801874    2.147116
H      -2.743491   -3.466574   -1.343863
H      -0.619570   -5.070352   -0.615742
H      -0.957012   -5.005286    1.136675
H      -2.554209   -6.173439   -0.296286
