15

C       0.119081    1.632589   -0.118294
C      -0.047021    0.111851   -0.029838
O       0.425421   -0.542505   -1.202293
C       0.593257   -0.456387    1.199551
C       0.146713   -1.185374    2.259534
O      -1.101431   -1.600831    2.531009
N       1.216084   -1.449321    3.069571
N       2.269333   -0.941575    2.579721
O       1.917423   -0.290646    1.383286
H       1.179509    1.904912   -0.135979
H      -0.352641    1.995591   -1.034555
H      -0.342721    2.129526    0.740199
H      -1.110940   -0.138560    0.025113
H       1.370081   -0.364994   -1.278130
H      -1.070966   -2.110163    3.349972
