18

C      -1.278353    0.137632    0.533790
C       0.077508   -0.142587   -0.055596
O       0.870560    0.976683   -0.439666
C       1.346559    0.159999    0.648924
C       1.382729    0.744392    1.960817
C       1.450704    1.208729    3.072849
C       1.513424    1.790826    4.382475
C       2.823181    1.857151    5.101516
N       2.214128    3.084412    4.586551
H      -1.220181    0.927288    1.285497
H      -1.973241    0.451410   -0.251854
H      -1.683483   -0.766030    1.001380
H       0.116768   -0.970625   -0.766928
H       2.217796   -0.441593    0.389083
H       0.609494    1.700038    4.979237
H       2.832522    1.767461    6.184012
H       3.690151    1.443236    4.595449
H       2.664449    3.352460    3.714406
