20

O      -0.033043    1.447841    0.006051
C       0.028411    0.028302   -0.002654
C      -1.402544   -0.514605    0.037732
C      -1.422255   -2.037351   -0.170816
C      -2.803435   -2.622959    0.146994
C      -3.189148   -2.360266    1.609833
C      -2.868931   -0.948481    2.028657
C      -2.093946   -0.125609    1.322911
H       0.861572    1.788559    0.093015
H       0.533285   -0.339536   -0.910847
H       0.588613   -0.351847    0.866758
H      -1.928523   -0.032748   -0.801330
H      -1.127436   -2.279410   -1.198313
H      -0.674952   -2.501218    0.488723
H      -3.548399   -2.158167   -0.511527
H      -2.822789   -3.697436   -0.064704
H      -4.257529   -2.560552    1.761719
H      -2.665127   -3.066563    2.271805
H      -3.309181   -0.601452    2.961231
H      -1.914295    0.889507    1.665162
