16

O      -0.100456    1.441063   -0.071065
C      -0.010645    0.040179    0.042508
C       0.243688   -0.585355    1.459983
C      -1.111186   -1.288316    1.367564
C      -2.197825   -0.279710    1.187256
C      -1.373705   -0.657588   -0.027277
C      -1.936873   -1.230560   -1.200716
C      -2.391028   -1.716958   -2.204241
H       0.790713    1.804255   -0.050898
H       0.675674   -0.379197   -0.703063
H       1.099046   -1.264191    1.470159
H       0.344113    0.137042    2.276141
H      -1.313788   -2.311308    1.657174
H      -3.209596   -0.668825    1.172119
H      -2.096981    0.720041    1.599548
H      -2.798366   -2.141598   -3.087630
