20

C      -0.023084    1.393716    0.582971
C      -0.126734   -0.067150    0.143682
C       0.503382   -0.313308   -1.236700
C       0.562530   -1.812894   -1.547465
O       0.428439   -2.295989   -2.639806
N      -0.202782    0.424459   -2.258297
C       0.354978    0.553458   -3.381194
O      -0.278636    1.188730   -4.380851
C       0.408999    1.216629   -5.627204
H       1.024058    1.703568    0.679657
H      -0.501997    2.046097   -0.151807
H      -0.508672    1.548995    1.550965
H       0.362225   -0.717753    0.879672
H      -1.180111   -0.367329    0.096084
H       1.571449   -0.020331   -1.172581
H       0.781254   -2.447943   -0.658432
H       1.363437    0.197739   -3.635941
H       1.403727    1.667849   -5.527829
H       0.507137    0.209644   -6.048769
H      -0.195239    1.829301   -6.296975
