13

C       0.065598    1.255285    0.216677
C       0.119552   -0.220299   -0.114430
O       0.151238   -1.091168    0.718923
C       0.106114   -0.567407   -1.608334
O       0.533151   -1.889732   -1.862170
C      -0.310450   -2.888626   -1.503319
O      -0.010744   -4.037148   -1.605466
H       1.030740    1.717471   -0.022712
H      -0.692697    1.769042   -0.384321
H      -0.142424    1.390243    1.278331
H      -0.911229   -0.386359   -1.989479
H       0.778805    0.091194   -2.164219
H      -1.290833   -2.520081   -1.150825
