22

C      -0.230817    1.570515   -0.275809
C      -0.322889    0.093350   -0.647005
C       1.027329   -0.536732   -0.938368
O       2.068672    0.063892   -0.779720
C       1.066754   -1.987871   -1.388467
C       2.092523   -2.817769   -0.639774
N      -0.222795   -2.586175   -1.778160
C       0.783849   -2.332500   -2.819828
C       0.457735   -1.341852   -3.911476
H       0.422111    1.717470    0.588097
H       0.188134    2.156600   -1.098637
H      -1.220312    1.970701   -0.037437
H      -0.773939   -0.498724    0.162882
H      -0.992356   -0.082430   -1.495000
H       1.813733   -2.930055    0.414358
H       2.180561   -3.817258   -1.077295
H       3.067894   -2.327397   -0.676140
H      -0.244445   -3.571229   -1.526042
H       1.341966   -3.199832   -3.173639
H      -0.100268   -0.483099   -3.533499
H       1.376156   -0.973756   -4.380392
H      -0.150288   -1.819437   -4.687268
