20

O      -0.438760    1.477434   -0.656104
C      -0.009371    0.227569   -0.131608
C      -1.242799   -0.549453    0.251262
C      -1.994014   -1.362445   -0.772733
C      -1.275156   -2.055990    0.364712
C      -0.072182   -2.937484    0.104389
N      -0.478585   -4.288763   -0.258036
C      -0.012964   -5.402951    0.365498
O       0.807452   -5.418514    1.259067
H       0.340525    2.020982   -0.806144
H       0.583520   -0.327010   -0.874958
H       0.630542    0.370734    0.753875
H      -1.853741   -0.020410    0.977302
H      -3.077682   -1.333234   -0.774097
H      -1.549337   -1.430895   -1.761780
H      -1.909148   -2.440097    1.159682
H       0.556505   -2.514100   -0.688324
H       0.550997   -3.041287    0.996260
H      -1.177314   -4.398360   -0.976240
H      -0.477270   -6.322904   -0.043267
