19

C      -0.012711    1.508900    0.033059
C      -0.030700    0.053660    0.030480
C      -0.040794   -1.149784    0.039150
C      -0.072394   -2.607420    0.005528
O       0.646692   -3.131232    1.132317
C       0.164877   -4.446043    1.395390
C      -1.302226   -4.432254    1.005588
C      -2.092903   -3.233047    1.464373
C      -1.462528   -3.238136    0.098233
H       0.494164    1.893032    0.925123
H       0.513624    1.903964   -0.842822
H      -1.027906    1.920833    0.026048
H       0.401383   -2.954168   -0.929371
H       0.707418   -5.196834    0.797569
H       0.352205   -4.648284    2.455296
H      -1.801404   -5.373280    0.806847
H      -3.171030   -3.335235    1.512389
H      -1.659631   -2.588900    2.222809
H      -2.074927   -3.258266   -0.794536
