16

C       0.039787    1.371512   -0.198814
C       1.460937    1.871797    0.170811
C       2.109287    0.596251    0.655030
C       3.396748    0.269491    1.039325
N       3.736840   -0.953061    1.476803
C       2.770072   -1.872648    1.539834
C       1.437054   -1.662749    1.181234
C       1.126295   -0.390225    0.728136
O      -0.096139    0.026827    0.332581
H      -0.761381    1.976299    0.230600
H      -0.105127    1.314806   -1.282673
H       1.968274    2.316910   -0.689600
H       1.428691    2.632697    0.958568
H       4.197064    1.005617    0.999846
H       3.073241   -2.853554    1.899153
H       0.694948   -2.448250    1.249007
