13

O      -0.118411    0.004496   -0.275363
C      -0.057339    1.167729   -0.051568
C      -1.013014    2.283013    0.373220
O       0.070701    3.232782    0.330614
C       1.068562    2.256850   -0.075041
C       2.162711    2.090094    0.849490
C       3.073074    1.925364    1.630556
C       4.095512    1.742999    2.507044
C       5.004036    1.581212    3.285750
H      -1.813163    2.507980   -0.342711
H      -1.440542    2.167084    1.377042
H       1.433471    2.459771   -1.091904
H       5.802950    1.438172    3.970694
