17

C       0.065503    1.366699    0.920185
O      -0.005233   -0.034601    1.069585
C       0.931473   -0.719494    0.246567
C       0.826536   -2.179373    0.519359
C       0.731099   -3.233334   -0.326770
O       0.708053   -4.391622    0.340057
N       0.765531   -4.120561    1.719191
C       0.846147   -2.811360    1.807870
N       0.979117   -2.150487    3.012115
H      -0.163554    1.674091   -0.111537
H      -0.676258    1.804067    1.592108
H       1.061648    1.755400    1.182607
H       0.738595   -0.507603   -0.816862
H       1.947299   -0.351120    0.471454
H       0.681395   -3.305852   -1.403242
H       0.740665   -2.718185    3.813683
H       0.514612   -1.251950    3.007542
