16

C      -0.017784    1.504439   -0.056040
C      -0.006914    0.012974    0.038921
N      -0.033308   -0.743317   -1.059896
N      -0.014599   -2.041281   -0.649435
C       0.023657   -2.142141    0.707940
C       0.029384   -0.828916    1.175460
N       0.068176   -0.882825    2.553010
C       0.086051   -2.210486    2.929622
C       0.059650   -3.030187    1.819414
H       0.876046    1.946381    0.400336
H      -0.049499    1.804333   -1.105460
H      -0.888772    1.936715    0.450940
H      -0.030333   -2.764843   -1.344470
H       0.081364   -0.104732    3.186326
H       0.116675   -2.478257    3.974676
H       0.065951   -4.107941    1.830531
