21

C      -0.055083    1.687965    0.131042
C      -0.032684    0.176798   -0.079391
O       0.568407   -0.066777   -1.341276
C       0.724938   -0.504860    1.060546
C      -0.010654   -1.270322    2.110581
C       0.920076   -2.012636    1.148210
C       0.345427   -2.975268    0.167457
C       0.907340   -4.383229    0.224489
O      -0.522879   -2.677003   -0.633736
H       0.962833    2.090240    0.093687
H      -0.638776    2.167957   -0.658400
H      -0.494818    1.942623    1.100251
H      -1.062575   -0.201248   -0.082181
H       0.309541   -0.966046   -1.576687
H       1.600946    0.047714    1.392785
H       0.293354   -1.213845    3.149705
H      -1.073923   -1.420676    1.951937
H       1.856928   -2.339170    1.588715
H       0.829687   -4.787315    1.239785
H       0.374714   -5.025980   -0.476854
H       1.973775   -4.367662   -0.029793
