21

C      -0.059669    1.605602   -0.035526
C       1.459561    1.341732   -0.009227
C       1.151162    0.171496    0.981052
C      -0.072686    0.038188    0.028715
C      -1.333665   -0.795650   -0.016124
C      -1.705525   -0.789967   -1.542884
C      -0.448950   -0.285168   -2.335748
C       0.659244   -0.292068   -1.277888
O       1.695863    0.705755   -1.284162
H      -0.444416    2.052851    0.883612
H      -0.462274    2.113906   -0.913661
H       2.214680    2.105249    0.170788
H       1.861247   -0.658857    1.021633
H       0.908627    0.528196    1.983986
H      -1.127592   -1.817912    0.321349
H      -2.140910   -0.406082    0.609823
H      -2.005294   -1.789465   -1.868334
H      -2.561069   -0.136028   -1.730403
H      -0.220761   -0.920437   -3.194902
H      -0.601702    0.727991   -2.715741
H       1.127955   -1.285426   -1.234319
