16

C      -0.081513    1.546952   -0.013140
C       0.053770    0.024307   -0.014182
N       0.776544   -0.488676   -1.190341
C       2.133014   -0.785801   -1.061903
O       2.872078   -1.168472   -1.929237
C       0.028666   -0.619977   -2.372056
O      -1.146183   -0.307836   -2.389780
C       0.677795   -1.139423   -3.550782
C       1.043154   -1.555879   -4.617645
H       0.899750    2.031683   -0.017010
H      -0.642357    1.880497   -0.888501
H      -0.618658    1.871014    0.883310
H       0.597591   -0.316606    0.871150
H      -0.931570   -0.443723   -0.006392
H       2.466229   -0.621659   -0.019381
H       1.412821   -1.928798   -5.541633
