16

C      -0.153272    1.502918    0.007132
C      -0.045737    0.011033   -0.058238
N       0.177100   -0.564515   -1.186928
N       0.260458   -1.940339   -1.152389
C       0.135471   -2.772717   -0.065191
N       0.215583   -4.049328   -0.049843
C      -0.123537   -2.066263    1.233495
N      -0.272760   -2.627929    2.361731
N      -0.194468   -0.684802    1.120479
H       0.607277    1.923147    0.675155
H      -0.014618    1.915816   -0.991473
H      -1.134548    1.810248    0.386543
H       0.435244   -2.346429   -2.058011
H       0.393110   -4.438485   -0.976425
H      -0.185268   -3.636602    2.225700
H      -0.368350   -0.189031    1.983006
