18

C       0.232018    1.432754   -0.129498
C       0.000154   -0.038963    0.146653
O       1.175833   -0.889436    0.173774
C       0.460638   -0.702514    1.393634
C       1.190192    0.010193    2.494177
C       2.464769   -0.562913    2.998051
N       2.463486    0.684075    2.214126
C      -1.129771   -0.617141   -0.546892
C      -2.081046   -1.066840   -1.127778
H       1.033032    1.835633    0.490511
H       0.485223    1.577621   -1.183846
H      -0.685023    1.993304    0.074790
H      -0.112278   -1.574671    1.713602
H       0.543374    0.535145    3.194617
H       2.732764   -0.453209    4.044663
H       2.833135   -1.467008    2.520233
H       2.726587    0.453925    1.256569
H      -2.918027   -1.473173   -1.640264
