12

N       0.000821    1.448750    0.164429
C      -0.043420    0.058123    0.039513
C      -1.154719   -0.715935    0.015016
O      -1.105018   -2.057443   -0.017887
C       0.124398   -2.754998   -0.030749
O       0.078841   -3.947266   -0.040897
N       1.270966   -1.983067   -0.037693
C       1.168184   -0.711038   -0.000431
F       2.287447    0.001382   -0.017935
H       0.828874    1.855100   -0.248649
H      -0.833188    1.921054   -0.156597
H      -2.169866   -0.336324    0.026289
