21

C      -0.135387    1.557629    0.044865
C       0.031264    0.029222    0.006325
C       0.877306   -0.467393   -1.182700
C       2.001660   -1.298862   -0.560897
O       2.867237   -1.895634   -1.163755
C       1.837573   -1.255309    0.910662
C       2.811030   -1.973015    1.790681
C       0.747538   -0.529742    1.229287
C       0.210258   -0.257589    2.598325
H       0.839908    2.053637    0.103481
H      -0.638989    1.910680   -0.860331
H      -0.731714    1.880642    0.903665
H      -0.975180   -0.411959   -0.031896
H       0.313448   -1.079611   -1.892477
H       1.313893    0.357064   -1.756421
H       3.030447   -2.961028    1.374244
H       3.767216   -1.437927    1.831295
H       2.447679   -2.091990    2.814170
H       0.720777   -0.838874    3.368785
H       0.313910    0.803240    2.857608
H      -0.861906   -0.485053    2.647071
