19

C       0.013514    1.553516    0.085669
C       0.043046    0.047722    0.075888
C      -1.274786   -0.783665    0.229851
C      -0.366743   -1.858066    0.801587
O      -0.685972   -3.075827    1.377495
C       0.722764   -0.867752    1.184474
C       0.952837   -1.830190    0.027176
O       1.741617   -2.953775   -0.036863
C       0.846425   -0.736793   -1.015716
H       1.026208    1.970498    0.077038
H      -0.512671    1.937806   -0.796322
H      -0.500521    1.937349    0.973518
H      -1.930514   -0.349771    0.993439
H      -1.850210   -0.997795   -0.678551
H      -1.004408   -2.929407    2.274367
H       1.251198   -0.659761    2.103925
H       1.245357   -3.668054    0.385836
H       0.338443   -0.953598   -1.963319
H       1.816059   -0.268324   -1.210463
