17

C      -0.029213    1.454434   -0.248862
N       0.014292    0.126836    0.332352
C      -1.238330   -0.625313    0.336242
C      -1.144704   -1.847377    1.248280
C       0.097174   -2.702256    0.960176
O       0.100520   -3.903520    1.167379
C       1.251079   -1.937742    0.518836
C       1.164021   -0.601507    0.284552
H       0.952151    1.926738   -0.165615
H      -0.316912    1.435676   -1.311720
H      -0.754160    2.074779    0.287705
H      -2.043769    0.042210    0.658533
H      -1.469715   -0.945263   -0.694820
H      -1.077839   -1.522939    2.295534
H      -2.037682   -2.469132    1.154395
H       2.207906   -2.438868    0.449036
H       2.052656   -0.024440    0.042003
