23

C      -0.013154    1.462892    0.012333
N       0.062879    0.012700   -0.034120
C       0.714139   -0.648571    0.993025
O       1.349307   -0.039842    1.843940
N       0.622418   -2.027205    0.959915
C      -0.016774   -2.729048   -0.136933
C       1.235051   -2.789900    2.057073
C       0.213420   -3.693551    2.759107
C       2.473419   -3.568397    1.592722
H       0.966922    1.856416    0.282219
H      -0.293438    1.837774   -0.975660
H      -0.737167    1.832128    0.751287
H      -0.707000   -0.455608   -0.482108
H       0.295520   -2.318119   -1.102911
H       0.278729   -3.779328   -0.120009
H      -1.116318   -2.701344   -0.085968
H       1.563674   -2.022575    2.759650
H      -0.154639   -4.489835    2.102006
H       0.673779   -4.175229    3.627294
H      -0.646247   -3.113376    3.107184
H       2.223401   -4.347596    0.863336
H       3.202376   -2.892684    1.137306
H       2.949954   -4.062562    2.445453
