15

O       0.022004    0.003588    0.461017
C      -0.002658    1.145109    0.072482
C       1.229156    1.975266   -0.048590
C       1.495102    2.922311   -1.201091
C       0.313307    3.346198   -2.060784
O      -0.640742    3.950979   -1.174461
C      -0.104028    4.180039    0.066800
O      -0.660942    4.838749    0.892241
C       1.230792    3.496725    0.154899
H      -0.955295    1.634892   -0.215856
H       2.106717    1.471847    0.343591
H       2.480896    2.911083   -1.648467
H       0.621175    4.092263   -2.801173
H      -0.178745    2.520314   -2.581686
H       1.971059    3.927767    0.814339
