13

C       0.002999    1.486954   -0.052240
C      -0.018937   -0.024011    0.065493
O      -0.047081   -0.603874    1.129492
C      -0.003901   -0.744250   -1.194496
C       0.008639   -1.341939   -2.242905
C       0.024339   -2.039847   -3.520009
O       0.001386   -3.441219   -3.307163
H       0.898566    1.809366   -0.594313
H      -0.862023    1.832276   -0.628709
H      -0.010699    1.929826    0.944642
H      -0.844000   -1.702855   -4.110367
H       0.923888   -1.726538   -4.075663
H       0.012602   -3.865827   -4.171163
