25

C      -0.350127    1.552332    0.105988
C      -0.029595    0.043670    0.077840
C       0.797523   -0.341801    1.321576
C      -1.369328   -0.720870    0.151391
C       0.673679   -0.382539   -1.250259
C       1.330640    0.618990   -2.263021
C       2.563141    0.719851   -1.316734
C       2.184501   -0.789971   -1.358710
C       2.029807   -0.617378   -2.896621
H       0.549913    2.172312    0.105301
H      -0.954679    1.841823   -0.760071
H      -0.922049    1.803101    1.006702
H       0.238706   -0.112694    2.236180
H       1.018296   -1.414434    1.329670
H       1.748703    0.193773    1.375079
H      -2.009563   -0.477116   -0.703553
H      -1.205545   -1.804111    0.147941
H      -1.917800   -0.466953    1.064995
H       0.029502   -1.103895   -1.765942
H       0.839505    1.435694   -2.794886
H       3.511926    0.991214   -1.789794
H       2.440604    1.250619   -0.374081
H       2.685032   -1.609627   -0.840315
H       1.389658   -1.337441   -3.414079
H       2.948255   -0.419765   -3.455940
