17

C      -0.070481    1.464385   -0.015840
C       0.001409   -0.048250    0.018791
O      -1.358392   -0.543121   -0.026226
C      -1.537268   -1.844960   -0.006910
N      -2.685097   -2.454409   -0.041610
C      -2.292951   -3.772812    0.001660
C      -3.259788   -4.905813   -0.014625
N      -1.000675   -3.974853    0.058727
O      -0.473940   -2.653548    0.053435
H       0.941152    1.879027    0.016786
H      -0.558043    1.809246   -0.931303
H      -0.630428    1.846380    0.841633
H       0.552036   -0.451084   -0.837365
H       0.479909   -0.413957    0.932997
H      -3.869320   -4.867869   -0.922300
H      -2.728052   -5.857543    0.024865
H      -3.938961   -4.833838    0.840029
