20

C      -0.601778    1.634342   -0.074844
C       0.081675    0.281387    0.035022
C       1.362114    0.039433   -0.851748
C       2.074223   -0.510986    0.385353
C       2.814468   -1.789011    0.479464
N       3.496242   -0.493985    0.692837
C       0.975285    0.016949    1.306092
C      -0.886737   -0.862000   -0.153126
O      -2.068380   -0.745474   -0.356275
H       0.120031    2.444380    0.066751
H      -1.073383    1.756343   -1.054471
H      -1.388268    1.735827    0.678623
H       1.255231   -0.625311   -1.714565
H       1.777343    0.993229   -1.192884
H       2.726991   -2.407755    1.368887
H       3.007320   -2.338478   -0.439094
H       4.033360   -0.240503   -0.133749
H       1.253340    0.954651    1.795005
H       0.577954   -0.669096    2.059526
H      -0.415643   -1.871610   -0.088150
