21

C       0.084293    1.435866    0.259473
C      -0.059630   -0.039164   -0.155372
C      -1.477146   -0.533580   -0.127754
C      -2.187042   -1.005215   -1.164293
C      -3.541561   -1.481999   -0.770766
C      -3.554998   -2.631029    0.221857
O      -2.454481   -3.457871    0.438776
C      -3.622989   -1.219855    0.741810
C      -2.303767   -0.567619    1.151412
H       1.131003    1.750627    0.210058
H      -0.498007    2.086323   -0.400685
H      -0.263826    1.600198    1.283853
H       0.351680   -0.178369   -1.161536
H       0.556146   -0.652064    0.518097
H      -1.814625   -1.075405   -2.181297
H      -4.382265   -1.351559   -1.443926
H      -4.473225   -3.208268    0.273141
H      -1.695003   -3.044681    0.007658
H      -4.542298   -0.881874    1.206377
H      -1.794542   -1.143514    1.936857
H      -2.459046    0.440360    1.554993
