21

C      -0.000137    1.554854   -0.073374
C       1.534152    1.557108   -0.094263
C       2.103737    0.935376    1.153808
C       1.537901    1.088286    2.565831
C       0.614665   -0.039337    3.038654
O      -0.660950   -0.024949    2.424207
C      -0.742072   -0.681354    1.174071
C       0.025100   -0.006915    0.041046
C       1.563829    0.032532    0.072669
H      -0.469157    2.083838    0.760999
H      -0.448218    1.901448   -1.006524
H       2.141524    2.177913   -0.742407
H       3.191444    0.947895    1.128119
H       2.375194    1.143916    3.272731
H       0.993290    2.034944    2.665997
H       1.101488   -1.016562    2.888227
H       0.427129    0.078715    4.112270
H      -0.404144   -1.728457    1.270990
H      -1.811722   -0.701457    0.933910
H      -0.309552   -0.455775   -0.900662
H       2.200405   -0.693809   -0.420577
