19

C      -0.037142    1.583975    0.038526
C       1.519596    1.572679   -0.043741
C       1.511596    0.045857    0.150212
C       2.462484   -0.996398   -0.445690
O       2.604124   -1.675461    0.823336
C       1.794225   -0.666651    1.492265
C       0.449750   -1.137001    1.981206
C      -0.534541   -0.756605    1.160893
C      -0.031668    0.015996   -0.028547
H      -0.421289    1.962881    0.988240
H      -0.553340    2.096835   -0.775801
H       1.885963    1.860044   -1.034208
H       2.063358    2.158640    0.702768
H       2.044554   -1.650109   -1.222360
H       3.422583   -0.593422   -0.797279
H       2.385966   -0.141535    2.253653
H       0.321878   -1.704495    2.896304
H      -1.588223   -0.964220    1.321546
H      -0.400829   -0.371660   -0.983670
