21

C      -0.121586    1.577173   -0.165077
C      -0.007370    0.051574    0.008684
C       0.724735   -0.576621   -1.159368
C       1.954200   -0.973501   -0.836619
C       2.262434   -0.721802    0.619270
C       0.860505   -0.428685    1.218288
C       0.870920    0.489357    2.449935
C       1.571678   -0.162474    3.620017
O       2.517094    0.295941    4.207775
H       0.864576    2.046474   -0.242404
H      -0.670386    1.813733   -1.082488
H      -0.657842    2.041251    0.668855
H      -1.025647   -0.347193    0.105025
H       0.290624   -0.621127   -2.152809
H       2.677130   -1.399928   -1.523279
H       2.752636   -1.569919    1.111230
H       2.945700    0.132034    0.736674
H       0.441201   -1.395283    1.526927
H       1.355254    1.448139    2.246280
H      -0.165151    0.685999    2.763486
H       1.138542   -1.148437    3.916315
