17

N       0.045862    1.535329   -0.092417
C      -0.052132    0.099562    0.012596
C       0.993612   -0.614039   -0.716748
N       1.847154   -1.118391   -1.314108
C      -0.457248   -0.682691    1.255658
C      -1.646459   -0.136504    2.092051
C      -2.297039    1.125842    1.590914
C      -2.530450   -0.167032    0.854773
C      -1.341036   -0.712873    0.018443
H       0.942841    1.850181    0.265816
H      -0.008993    1.817693   -1.066736
H       0.199869   -1.456760    1.630719
H      -1.856625   -0.549008    3.070021
H      -3.152700    1.417303    2.194985
H      -1.730332    1.938752    1.165942
H      -3.513803   -0.606244    0.750540
H      -1.464567   -1.513601   -0.699352
