23

C       0.522082    1.515452    0.071852
C      -0.040164    0.098751    0.122119
C       0.254883   -0.750562   -1.135536
C       1.434945   -1.644226   -0.707661
C       1.556110   -2.947644   -1.494056
O       2.664038   -0.913529   -0.764131
C       1.104670   -1.842276    0.787040
C       2.266286   -2.219541    1.690600
O       0.567697   -0.597475    1.218648
H       1.591676    1.482758   -0.150772
H       0.012776    2.108339   -0.695873
H       0.381752    2.010579    1.036997
H      -1.124071    0.144729    0.300467
H      -0.607819   -1.370409   -1.399509
H       0.502822   -0.139480   -2.008784
H       1.720728   -2.744012   -2.558823
H       2.404120   -3.535330   -1.130436
H       0.648901   -3.553745   -1.409583
H       2.853595   -0.731855   -1.690312
H       0.325802   -2.623467    0.847819
H       3.065965   -1.482633    1.604943
H       1.928020   -2.259923    2.729463
H       2.661407   -3.204343    1.421691
