20

C      -0.006226    1.509354   -0.046144
C      -0.031712    0.004689    0.048098
C      -1.308398   -0.733905   -0.343817
C      -1.142035   -2.166157    0.204469
C      -0.205058   -2.018274    1.441967
C       0.564287   -3.220583    1.739159
C       1.203133   -4.213904    1.964901
C       0.641764   -0.782643    1.119045
N       1.245576   -0.683030   -0.214353
H       0.957571    1.898296    0.290651
H      -0.156248    1.837496   -1.081281
H      -0.799252    1.955734    0.564323
H      -2.163471   -0.233991    0.128136
H      -1.490044   -0.719987   -1.424754
H      -2.091257   -2.634763    0.472073
H      -0.670697   -2.819763   -0.534483
H      -0.815472   -1.769168    2.321445
H       1.769855   -5.087451    2.172455
H       1.211240   -0.329898    1.925624
H       1.126208   -1.543438   -0.743556
