17

C      -0.588784    1.399418   -0.036736
C       0.010818    0.008540   -0.026643
O       1.199146   -0.111385   -0.852880
C       1.971080   -0.632660    0.260909
C       2.992912    0.354214    0.769310
C       2.583790    0.971267    1.884945
C       1.217198    0.523044    2.271091
O       0.565475    0.907600    3.213863
C       0.785697   -0.507561    1.227898
H       0.139111    2.152654    0.274929
H      -0.926866    1.648607   -1.047332
H      -1.449718    1.446117    0.637672
H      -0.736047   -0.727097   -0.351306
H       2.383578   -1.622184    0.038117
H       3.924029    0.540424    0.245241
H       3.117807    1.728407    2.445825
H       0.372442   -1.402306    1.691126
