18

C      -0.075126    1.465449    0.011294
C      -0.051802    0.010525    0.002963
C      -0.035964   -1.192378   -0.003875
C       0.011420   -2.646053   -0.012307
O      -1.307409   -3.176521   -0.003031
C      -1.324106   -4.582497   -0.010421
C      -2.799507   -5.000566    0.000988
C      -2.958877   -6.451095   -0.005401
N      -3.065057   -7.601516   -0.010401
H       0.941419    1.873588    0.001944
H      -0.599247    1.860170   -0.865718
H      -0.579067    1.850404    0.904331
H       0.554010   -3.003354   -0.904055
H       0.570346   -3.013089    0.865286
H      -0.823378   -4.985406   -0.905207
H      -0.806932   -4.994936    0.870562
H      -3.286152   -4.583785    0.888711
H      -3.302490   -4.574270   -0.872998
