17

O      -0.088647    0.011501    0.125667
C      -0.004548    1.215993    0.027135
C       1.265166    1.947833    0.007951
C       1.375699    3.278511   -0.124132
C       2.796724    3.698980   -0.123395
C       3.298662    4.828032   -0.930344
O       3.139998    4.953883    0.480258
C       3.611049    2.452797    0.243346
C       2.614801    1.270211    0.112896
H      -0.912657    1.853774   -0.053560
H       0.556185    3.981056   -0.228911
H       4.327246    4.797332   -1.289128
H       2.612370    5.418917   -1.536640
H       4.498134    2.332784   -0.382220
H       3.951725    2.563410    1.277211
H       2.653735    0.575907    0.956813
H       2.806231    0.669587   -0.783687
