19

C      -0.074613    1.563836   -0.025011
C       0.045600    0.052375   -0.080722
C      -1.076753   -0.670554    0.642595
C       0.603381   -0.678625   -1.259868
N       1.326881   -0.661244    0.105536
C       2.427060    0.159897   -0.527081
C       1.739351    0.050846   -1.871184
N       2.039787    0.238833   -3.087495
O       3.282483    0.892420   -3.193971
H       0.630086    2.081692   -0.676596
H      -1.081865    1.859430   -0.334995
H       0.072154    1.919438    1.001355
H      -2.043864   -0.451113    0.178287
H      -0.914702   -1.750856    0.629144
H      -1.120172   -0.349245    1.688644
H       0.133818   -1.568558   -1.665940
H       2.583381    1.149122   -0.090459
H       3.368822   -0.394818   -0.501918
H       3.403467    0.943516   -4.148076
