15

N       0.842333   -0.378949    1.271962
C       0.361110    0.410457    0.578023
C      -0.255803    1.432844   -0.293185
C      -1.344801    2.187047    0.463503
C      -1.070734    3.101275    1.388532
C       0.345599    3.442595    1.763208
O       1.106829    3.998513    0.670963
C       1.271889    3.308504   -0.472353
N       0.778724    2.240759   -0.942443
H      -0.739197    0.876544   -1.104351
H      -2.370036    1.945232    0.201487
H      -1.873764    3.627960    1.894581
H       0.380980    4.217511    2.529577
H       0.875501    2.561516    2.145861
H       1.993062    3.845784   -1.089028
