19

C      -0.030113    1.496731   -0.261171
C       1.483051    1.511505    0.177382
C       1.166406    0.249333    0.994352
C       1.695651   -1.139049    1.364633
C       0.312449   -1.638665    1.841637
C      -0.351247   -0.411328    2.416918
O       0.527439    0.676260    2.224067
C      -0.811706   -0.882503    1.063090
C      -0.036936   -0.033752    0.077497
H      -0.648581    2.092736    0.408731
H      -0.247509    1.762412   -1.297237
H       2.151407    1.306783   -0.662575
H       1.851043    2.371776    0.738694
H       2.087963   -1.685854    0.503843
H       2.428713   -1.147013    2.176007
H       0.155831   -2.631011    2.242520
H      -0.947649   -0.366076    3.317474
H      -1.777632   -1.340546    0.895865
H       0.261185   -0.604945   -0.806709
