14

C      -0.083655    1.236088   -0.031438
C      -0.000050   -0.291131   -0.077809
N      -1.099177   -1.030022   -0.683817
C      -2.101301   -0.434312   -1.144085
O      -3.163175   -1.085105   -1.725363
C      -3.342648   -2.425449   -1.483616
O      -4.175774   -3.042859   -2.068693
H       0.815744    1.634239    0.446875
H      -0.146138    1.672158   -1.033953
H      -0.947016    1.581180    0.547154
H       0.909060   -0.595232   -0.611738
H       0.118218   -0.685247    0.939566
H      -2.286176    0.640117   -1.183282
H      -2.662990   -2.807916   -0.711802
