21

C       0.566506    1.471546    0.239448
C       0.085334    0.056454   -0.003672
C       0.503353   -0.664969   -1.304575
C       1.067374   -1.746036   -0.359446
C       2.533382   -2.121565   -0.472598
C       3.007243   -2.942201    0.744475
C       4.419304   -3.295182    0.677009
C       5.585830   -3.573905    0.595186
O       0.795881   -0.920345    0.800299
H       1.637451    1.559300    0.032306
H       0.026154    2.174798   -0.403974
H       0.393641    1.760622    1.281031
H      -0.994943   -0.012833    0.189579
H      -0.298358   -0.969870   -1.978398
H       1.272723   -0.134885   -1.872379
H       0.448513   -2.656290   -0.329067
H       2.688572   -2.696266   -1.393705
H       3.137378   -1.211090   -0.550846
H       2.808835   -2.361277    1.652707
H       2.404864   -3.856751    0.827119
H       6.615395   -3.826100    0.537266
