16

O      -0.079400    1.397887   -0.052537
C       0.052038    0.022021   -0.040090
C       0.873643   -0.803464   -1.028949
C      -0.119982   -1.987592   -0.773111
C       0.386191   -2.859775    0.375271
O       0.527317   -1.951934    1.477643
C      -0.270971   -0.826069    1.179641
C      -1.085571   -0.996586   -0.062052
H       0.626517    1.774556    0.484983
H       0.771550   -0.405917   -2.041667
H       1.931766   -0.979350   -0.803578
H      -0.476200   -2.531636   -1.646500
H      -0.330613   -3.656089    0.626617
H       1.363012   -3.313417    0.177687
H      -0.675112   -0.324745    2.051362
H      -2.157538   -0.896419   -0.163288
