17

C      -0.133475    1.481185    0.051746
C       0.035295   -0.035044    0.032124
O      -1.212492   -0.688213    0.155524
C       0.875131   -0.526101   -1.140602
C       2.123901   -0.436615   -0.343452
C       1.214987   -0.538434    0.936644
C       1.212187   -2.047016    0.662238
N       1.622734   -1.772529   -0.760653
H       0.826083    1.995790   -0.045384
H      -0.785856    1.803298   -0.765954
H      -0.590230    1.802784    0.996336
H      -1.726607   -0.239309    0.835085
H       0.712416   -0.362439   -2.198226
H       3.107655   -0.044534   -0.560473
H       1.383018   -0.102074    1.920664
H       2.029967   -2.580820    1.152397
H       0.267658   -2.584416    0.781411
