20

C      -0.049209    1.505915    0.023715
C       0.032437   -0.011429    0.027493
C       0.719794   -0.713851   -1.188199
C       0.531588   -2.137104   -0.590401
C       1.127709   -1.909609    0.788963
C       0.826888   -0.661925    1.154299
C      -1.031406   -2.129558   -0.466093
N      -1.585229   -1.863659    0.879875
C      -1.356011   -0.746151   -0.062133
H       0.948110    1.954945   -0.027018
H      -0.623151    1.870995   -0.835626
H      -0.536886    1.879200    0.931091
H       0.173248   -0.565178   -2.127036
H       1.767810   -0.427670   -1.315283
H       0.925625   -2.978672   -1.160400
H       1.595553   -2.675573    1.393679
H       1.000827   -0.197612    2.117221
H      -1.619042   -2.693368   -1.181991
H      -2.578078   -2.093785    0.866061
H      -2.205184   -0.194235   -0.452108
