18

C      -0.184007    1.275917   -0.180092
C       0.055817   -0.195765    0.135176
O      -1.162156   -0.906382    0.257246
C       1.179585   -0.861459   -0.750804
C       2.034269   -1.013125    0.515106
C       0.939647   -0.407011    1.380843
N       1.334740   -1.784114    1.504173
C       0.574731   -2.931226    1.302328
O       0.885292   -3.827064    0.556897
H       0.753043    1.841273   -0.188600
H      -0.650766    1.386700   -1.165631
H      -0.851722    1.715936    0.566879
H      -1.593128   -0.926366   -0.604228
H       0.915622   -1.801570   -1.238551
H       1.601003   -0.166405   -1.480222
H       3.107751   -0.896076    0.600507
H       1.001925    0.251247    2.240714
H      -0.300955   -2.962847    1.973384
