23

C       0.097097    1.129055    0.715521
C      -0.012576   -0.294521    0.166593
C       0.581752   -0.456740   -1.237719
O       1.977761   -0.154381   -1.205339
C       2.381468    0.946662   -1.990790
C       0.384003   -1.885530   -1.795902
C       0.899444   -2.012671   -3.240832
C       1.097579   -2.912427   -0.933075
O       0.571474   -3.881827   -0.446693
H       1.143408    1.440610    0.777899
H      -0.434894    1.845799    0.079317
H      -0.333118    1.195214    1.719143
H       0.496016   -0.990225    0.845176
H      -1.063499   -0.607247    0.134123
H       0.073373    0.240474   -1.921558
H       1.890807    1.879073   -1.677013
H       3.460600    1.057705   -1.854573
H       2.177263    0.790419   -3.059989
H      -0.683645   -2.127691   -1.762545
H       0.397072   -1.290747   -3.892857
H       1.975924   -1.824011   -3.289071
H       0.709898   -3.014208   -3.637454
H       2.182939   -2.714722   -0.795448
