19

C       0.249784    1.306180   -0.382848
O       0.381095   -0.077953   -0.131347
C       0.849059   -0.484890    1.122015
C       1.975562    0.295280    1.863132
O       1.205883    0.279353    3.083557
C       0.019656   -0.161993    2.395832
C       1.179355   -1.960386    1.036251
C       0.721359   -2.824447   -0.055752
O       2.075140   -2.360844    0.004609
H       1.223531    1.806241   -0.463439
H      -0.265241    1.394089   -1.342133
H      -0.346848    1.822036    0.381371
H       2.938266   -0.215405    1.966103
H       2.145384    1.316082    1.501179
H      -0.709967    0.646778    2.259728
H      -0.469377   -1.002809    2.900909
H       1.387219   -2.406904    2.010098
H       0.584402   -3.889317    0.127432
H       0.123910   -2.392900   -0.853143
