19

C      -0.109107    1.425594    0.131539
N      -0.040722   -0.023417    0.100176
C      -0.019320   -0.816535   -1.002782
N       0.059967   -2.093658   -0.704418
C       0.091032   -2.145350    0.671470
C       0.185258   -3.455809    1.385929
C       0.032771   -0.871072    1.197778
C      -0.003886   -0.359923    2.595850
O      -1.228749    0.307703    2.922643
H       0.862094    1.864220    0.386772
H      -0.405573    1.789175   -0.854263
H      -0.843649    1.741413    0.874821
H      -0.072859   -0.401344   -1.999511
H       1.132364   -3.958737    1.161172
H       0.118638   -3.334551    2.470440
H      -0.617228   -4.129003    1.066825
H       0.191392   -1.192512    3.284879
H       0.775023    0.390615    2.774253
H      -1.944596   -0.299415    2.704480
