21

C       0.548469    0.581687   -1.084580
C       0.162644    0.393592    0.388325
C      -0.967486   -0.639047    0.530477
C       1.357942    0.064542    1.284275
C       1.097960    0.073414    2.799155
C       0.616848   -1.190726    3.345089
C       0.245103   -2.239244    3.800740
C       2.517826   -0.701084    0.808825
O       2.586837    0.723693    0.941765
H       0.796916   -0.374087   -1.559212
H      -0.294152    1.006788   -1.638054
H       1.405235    1.250700   -1.186110
H      -0.218068    1.359547    0.753441
H      -0.632432   -1.629960    0.204958
H      -1.321521   -0.733498    1.559374
H      -1.817944   -0.350420   -0.095394
H       2.045234    0.340402    3.280869
H       0.390450    0.876798    3.041386
H      -0.090411   -3.162472    4.203765
H       3.111809   -1.266717    1.525530
H       2.551621   -1.073826   -0.212195
