19

C      -0.041780    1.520192    0.051700
C      -0.012144    0.014268    0.013893
C       0.327406   -0.828451   -1.270951
C      -0.349031   -1.951780   -0.445015
O       0.538052   -2.130259    0.670459
C       0.819974   -0.759541    1.049846
C      -1.293746   -0.855837    0.061493
C      -2.529104   -0.823928    0.827310
O      -2.489947   -0.476096   -0.579473
H       0.939171    1.943824   -0.188366
H      -0.767680    1.906865   -0.669732
H      -0.327595    1.886134    1.044714
H      -0.259789   -0.516861   -2.136343
H       1.380183   -0.970540   -1.526518
H      -0.667937   -2.913413   -0.840970
H       1.896799   -0.562951    0.977900
H       0.493271   -0.581013    2.081773
H      -3.052119   -1.750175    1.058857
H      -2.737524    0.008736    1.497569
