16

O      -0.076416    1.402979    0.124304
C      -0.032901    0.013534   -0.000906
C      -1.337042   -0.739367    0.012105
C      -2.581791    0.087338   -0.315019
N      -2.366139    0.522136   -1.689925
C      -1.237768    0.046727   -2.273896
O      -0.880850    0.158576   -3.432923
C      -0.473905   -0.735187   -1.237429
O       0.253579   -1.804236   -1.727856
H       0.600032    1.781685   -0.447321
H       0.784507   -0.481404    0.525028
H      -1.439720   -1.606321    0.652291
H      -3.489700   -0.521780   -0.234708
H      -2.676939    0.946876    0.357190
H      -2.992155    1.137923   -2.183177
H       0.378347   -1.606336   -2.669032
