20

C      -0.024733    1.479204    0.239034
C      -0.076806   -0.015569   -0.051800
C      -1.503441   -0.480289   -0.351871
C       0.942066   -0.470700   -1.120700
C       1.382013   -1.848473   -0.617792
O       2.680427   -2.216791   -0.999109
C       1.249956   -1.679284    0.884412
N       1.928140   -2.363206    1.702213
O       0.367446   -0.700130    1.173469
H       0.983925    1.777874    0.536299
H      -0.304727    2.046355   -0.654154
H      -0.716684    1.742592    1.044258
H      -1.901309    0.052175   -1.221261
H      -1.539382   -1.552723   -0.563286
H      -2.154379   -0.279018    0.503420
H       0.510917   -0.485633   -2.123330
H       1.816344    0.187376   -1.127239
H       0.655633   -2.614809   -0.937768
H       3.061885   -2.649650   -0.220405
H       1.748270   -2.098916    2.670501
