16

C      -0.127643    1.660513    0.377375
C      -0.066165    0.144065    0.200448
N       0.671371   -0.508187    1.283043
N       1.986708   -0.742682    1.161869
C       2.302663   -1.303367    2.329671
N       1.272938   -1.441051    3.187930
C       0.250440   -0.925861    2.505818
C      -1.117096   -0.839411    3.026713
O      -2.052375   -0.340439    2.439807
H       0.877835    2.085769    0.435861
H      -0.644677    2.107459   -0.476518
H      -0.680270    1.919241    1.283782
H      -1.070188   -0.280473    0.186922
H       0.456532   -0.126611   -0.718634
H       3.311230   -1.620443    2.548018
H      -1.213886   -1.283693    4.035662
