21

C       0.186753    1.411410    0.229396
C      -0.151514   -0.069095    0.006339
C      -1.663066   -0.292099   -0.088906
O      -2.260259    0.171885    1.114034
C       0.533809   -0.606452   -1.234750
C       1.961335   -1.063768   -1.196472
C       0.855643   -2.091262   -1.399450
C       0.548761   -3.037606   -0.367258
C       0.283472   -3.842970    0.487120
H       1.264249    1.552659    0.358146
H      -0.129464    2.018184   -0.628037
H      -0.325477    1.790374    1.116061
H       0.198140   -0.644222    0.872408
H      -2.059550    0.252983   -0.963390
H      -1.860658   -1.362540   -0.242964
H      -3.204345   -0.001718    1.066243
H       0.221397   -0.122441   -2.158185
H       2.610305   -0.853524   -2.039202
H       2.459259   -1.074449   -0.233053
H       0.755328   -2.482207   -2.407947
H       0.056210   -4.551489    1.244314
