16

C       0.063216    1.429260   -0.224126
N       0.040701   -0.016224   -0.135376
C      -1.060079   -0.590025    0.147277
N      -2.284711    0.032988    0.388799
C      -3.433044   -0.657210    0.688935
C      -3.462040   -1.998980    0.773052
C      -2.240033   -2.767170    0.540456
O      -2.141924   -3.977097    0.588269
N      -1.128530   -1.971308    0.242648
H       1.075307    1.757041   -0.473161
H      -0.603334    1.824531   -1.009641
H      -0.209363    1.924712    0.723382
H      -2.305354    1.036381    0.335588
H      -4.308856   -0.039233    0.851717
H      -4.366293   -2.539428    1.009236
H      -0.258719   -2.457453    0.073623
