22

C       0.066167    1.496185    0.251935
C      -0.028154   -0.001255   -0.074991
C      -1.442533   -0.515258   -0.067240
C      -2.154885   -1.033594    1.160145
C      -3.432298   -0.552980    1.844652
C      -1.961176   -1.959515   -0.026844
C      -2.846213   -1.657039   -1.262644
N      -3.796355   -0.562531   -0.939404
C      -2.382363   -0.259159   -1.290661
H       1.102832    1.845697    0.215333
H      -0.512293    2.094554   -0.460402
H      -0.327992    1.703300    1.251920
H       0.426058   -0.189304   -1.058317
H       0.564307   -0.574860    0.648517
H      -1.392181   -1.299387    1.894184
H      -4.218299   -1.311499    1.803154
H      -3.222938   -0.344106    2.900093
H      -3.832710    0.348790    1.385369
H      -1.377914   -2.869957    0.052013
H      -3.040047   -2.345826   -2.074586
H      -4.345574   -0.393354   -1.782977
H      -2.137376    0.381909   -2.128330
