14

N       0.173317    1.433409    0.008034
C      -0.022982    0.038359    0.010606
C      -1.087968   -0.831679   -0.015066
O      -2.457396   -0.844435   -0.054677
C      -2.740683   -2.197182   -0.054733
N      -1.745677   -3.014119   -0.021116
C      -0.634612   -2.165294    0.006025
C       0.745974   -2.141075    0.045853
N       1.080933   -0.806857    0.047713
H      -0.207931    1.871407   -0.824246
H      -0.256803    1.881245    0.810720
H      -3.791953   -2.441759   -0.083726
H       1.495753   -2.912838    0.072117
H       2.017069   -0.438428    0.072783
