18

C      -0.037809    1.306699    0.314743
N      -0.112525   -0.062557   -0.137412
C      -1.190498   -0.861839   -0.032827
N      -2.384727   -0.331781    0.321984
H      -3.069810   -1.002359    0.654912
H      -2.440066    0.612648    0.661070
C      -1.087510   -2.240669   -0.317252
C      -2.289292   -3.137327   -0.346846
O      -3.132799   -3.007565    0.822186
N       0.180443   -2.667840   -0.562545
O       0.356688   -3.869927   -0.835692
H       0.979112    1.669092    0.158371
H      -0.710971    1.961021   -0.253917
H      -0.270843    1.410870    1.384057
H       0.723545   -0.579962   -0.384187
H      -2.959305   -2.908214   -1.183153
H      -1.924096   -4.162109   -0.469638
H      -2.603196   -3.282051    1.579174
