16

O       0.206796    1.405617   -0.151587
C       0.065241    0.023403   -0.004331
C      -0.025688   -0.655399    1.403440
C      -1.485880   -0.121282    1.510188
C      -1.354573   -0.651724    0.060336
O      -2.379743   -0.618606   -0.861094
C      -0.649804   -1.888625    0.678492
O       0.111529   -2.654619   -0.221925
H      -0.525370    1.853909    0.283253
H       0.775599   -0.436231   -0.689183
H       0.727409   -0.662681    2.187788
H      -2.168369   -0.667718    2.166259
H      -1.612336    0.954095    1.648781
H      -2.071534   -1.050580   -1.665995
H      -1.291042   -2.515327    1.310353
H       0.645191   -3.276729    0.281486
