16

O       0.119752    1.409426    0.004693
C       0.058354    0.001513   -0.008257
C      -1.402337   -0.480498   -0.026458
O      -1.975092    0.094595    1.148138
C      -2.145458   -0.162829   -1.300100
C      -2.504096   -1.309816   -1.885976
N      -2.086717   -2.427730   -1.144529
C      -1.449086   -2.039113    0.019443
O      -1.017601   -2.762717    0.883005
H      -0.442291    1.685623    0.739145
H       0.580543   -0.343279   -0.904997
H       0.542050   -0.446886    0.872449
H      -2.933249    0.033425    1.075574
H      -2.296733    0.835218   -1.680028
H      -3.026627   -1.465883   -2.819537
H      -2.317018   -3.386239   -1.348636
