14

O      -0.743994    1.183570   -0.653321
C      -0.223451    0.008727   -0.242479
C       0.686749   -0.769916   -0.911187
N       0.887719   -1.852713   -0.068549
C       0.112917   -1.672725    1.025994
C       0.047730   -2.633706    2.181409
C       0.916534   -3.791914    1.985267
N       1.617927   -4.688076    1.785817
N      -0.576885   -0.549511    0.953246
H      -1.349016    1.471344    0.040843
H       1.185366   -0.665773   -1.857540
H       1.499339   -2.636044   -0.235405
H       0.333926   -2.125522    3.109942
H      -0.982718   -2.980103    2.324496
