21

C      -0.026068    1.501057   -0.088760
C       0.099435   -0.002777    0.011920
C       1.428101   -0.698990   -0.050259
C       0.637416   -0.713874    1.257854
C       1.164351    0.083559    2.445742
C       2.219361   -0.673662    3.246505
O       2.654561    0.184685    4.291660
C      -0.021251   -1.947932    1.604921
C      -0.578621   -2.971802    1.905562
H       0.837404    2.020135    0.334791
H      -0.102555    1.801213   -1.139705
H      -0.922308    1.863199    0.426321
H      -0.718073   -0.541068   -0.459043
H       1.514596   -1.625640   -0.605155
H       2.320333   -0.079852   -0.060915
H       1.609810    1.021380    2.102626
H       0.338782    0.347321    3.116218
H       1.787436   -1.604188    3.641959
H       3.054649   -0.953919    2.584370
H       3.269101   -0.305529    4.845029
H      -1.069851   -3.875800    2.167159
