18

C       0.798487    1.181345   -0.494662
C      -0.145337    0.155008    0.083700
C      -1.426303   -0.070801   -0.702269
O      -1.150825   -0.565930   -2.000534
O       0.445319   -1.095983    0.517690
C      -0.134233   -0.236646    1.508449
C       0.783742    0.388593    2.535331
N       2.092963    0.051700    2.392909
O       0.343064    1.119830    3.399942
H       1.742473    1.213390    0.049707
H       0.991263    0.944189   -1.544275
H       0.339506    2.174618   -0.452753
H      -2.083930   -0.751075   -0.142590
H      -1.955802    0.877833   -0.839080
H      -0.703302   -1.412149   -1.885587
H      -1.064940   -0.589837    1.950776
H       2.353570   -0.651253    1.721371
H       2.752162    0.362171    3.087117
