18

O      -0.201548    1.335860    0.661930
C      -0.044372    0.091561   -0.011567
C       0.748469   -0.934402    0.835217
C      -0.320499   -1.614434    1.725189
N      -1.488506   -1.643926    0.847706
C      -1.463213   -0.511606   -0.117988
C      -1.814831   -1.508691   -1.252994
C      -1.638208   -2.597636   -0.172021
O      -1.559560   -3.793864   -0.150077
H       0.671698    1.721868    0.783260
H       0.412396    0.242504   -0.999405
H       1.202665   -1.685580    0.178787
H       1.553454   -0.456481    1.401404
H      -0.056834   -2.629429    2.027758
H      -0.537144   -1.021853    2.618968
H      -2.201058    0.266795    0.084154
H      -2.813090   -1.414025   -1.684454
H      -1.081953   -1.591630   -2.059539
