18

N       0.559129    1.300928    0.323536
C       0.045875   -0.044217    0.040106
C      -0.307719   -0.807767    1.348579
O      -1.718244   -0.652418    1.121167
C      -1.497079   -0.036446   -0.158322
C       0.827678   -0.775199   -0.951124
C       1.506568   -1.336017   -1.774015
C       2.311646   -2.035297   -2.767397
O       3.384770   -1.199331   -3.185145
H       1.526473    1.224907    0.631787
H       0.596373    1.828104   -0.546666
H      -0.003277   -1.860624    1.363428
H       0.027252   -0.302024    2.260912
H      -1.930754    0.967781   -0.219856
H      -1.857615   -0.658053   -0.985989
H       2.685435   -2.975513   -2.329815
H       1.669194   -2.314920   -3.618437
H       3.893282   -1.691034   -3.838221
