19

C      -0.024987    1.543715   -0.106772
C       0.010950    0.030876    0.021914
C      -1.226810   -0.648481   -0.537103
C       1.332515   -0.684702   -0.139410
C       0.666004   -0.634803    1.216662
C       1.289802    0.120290    2.360262
O       2.247191   -0.736250    2.974708
H       0.894950    2.017192    0.244611
H      -0.159316    1.831074   -1.156387
H      -0.861195    1.972274    0.458968
H      -1.356748   -0.413813   -1.600510
H      -1.164478   -1.736761   -0.440828
H      -2.131740   -0.317917   -0.012915
H       1.354452   -1.630182   -0.671278
H       2.224039   -0.079897   -0.275633
H       0.195974   -1.559063    1.544442
H       1.766594    1.043997    2.000258
H       0.511536    0.416244    3.083049
H       2.597258   -0.282618    3.747325
