18

O       0.102037    1.160577   -0.566672
C      -0.000938   -0.242057   -0.359888
C      -1.398225   -0.512222    0.193550
C      -2.502968   -0.126448   -0.804147
O      -2.706132   -1.295627   -1.642068
C      -2.184625   -2.382683   -1.032564
N      -2.067356   -3.547214   -1.506996
C      -1.680807   -2.016160    0.351758
O      -0.583840   -2.798380    0.739545
H       0.977008    1.349301   -0.917299
H       0.146937   -0.796741   -1.299882
H       0.745652   -0.607419    0.355509
H      -1.514778    0.038187    1.130200
H      -3.449277    0.109569   -0.305661
H      -2.216503    0.703818   -1.449922
H      -2.423741   -3.618442   -2.459569
H      -2.518768   -2.145054    1.058796
H      -0.635147   -3.597591    0.192380
