21

C       0.139189    1.612279    0.178942
C       0.040600    0.093216    0.017682
O       0.608315   -0.447886    1.221166
C      -1.446908   -0.339871   -0.081329
C      -2.278055    0.080746    1.111238
O      -3.347703    0.632032    1.035532
C       0.787880   -0.458184   -1.192410
C       1.065811    0.330148   -2.448268
C       2.199259   -0.049471   -1.530778
H       1.179936    1.944202    0.177071
H      -0.405440    2.134451   -0.611303
H      -0.294831    1.904268    1.138972
H       0.859206   -1.361215    1.047225
H      -1.913213    0.043960   -0.993341
H      -1.476636   -1.438913   -0.124051
H      -1.825321   -0.169982    2.093995
H       0.564095   -1.511258   -1.360312
H       0.971728   -0.180357   -3.400200
H       0.770999    1.372694   -2.475614
H       2.660588    0.735688   -0.943011
H       2.888232   -0.823512   -1.850128
