16

O      -0.061060    1.381844    0.010902
C       0.000903   -0.015703   -0.024138
C       0.649191   -0.709553    1.223694
O       0.168189   -2.051436    1.161251
C      -0.688333   -2.108898   -0.025243
C      -1.368231   -0.733189    0.013879
C       0.217288   -1.962599   -1.238989
C       0.636476   -0.693040   -1.231858
H       0.836572    1.729823   -0.009787
H       1.746331   -0.693420    1.192849
H       0.306074   -0.222101    2.145087
H      -1.299632   -3.005325    0.053294
H      -1.929349   -0.556710    0.935057
H      -1.976190   -0.510292   -0.863189
H       0.545685   -2.771733   -1.878337
H       1.379039   -0.225646   -1.868200
