20

C      -0.182979    1.562279    0.117296
C       0.067648    0.050420    0.021118
C       0.749852   -0.364982   -1.249148
N       1.523924   -1.634852   -1.376426
C       2.179504   -0.339051   -1.687076
C       1.797025   -0.012371   -3.138081
C       0.320882   -0.082050   -2.687905
C      -0.902342   -0.442537   -3.396907
O      -0.614753    0.923413   -3.033526
H       0.760927    2.116364    0.092043
H      -0.796332    1.904813   -0.718618
H      -0.695407    1.810355    1.051644
H       0.680709   -0.281686    0.869709
H      -0.885443   -0.488879    0.108486
H       1.806533   -1.894123   -0.430187
H       3.062442   -0.017985   -1.148323
H       2.057698    1.007479   -3.432517
H       2.129432   -0.725586   -3.895964
H      -0.868177   -0.650874   -4.465001
H      -1.728959   -0.903841   -2.858789
