14

O      -0.131019    1.406087   -0.107340
C      -0.075237    0.027790   -0.007949
C      -0.445373   -0.687844    1.265580
N      -1.192250    0.096680    2.214758
C      -2.280005    0.415100    1.629040
O      -2.521965   -0.052544    0.386573
C      -1.360873   -0.792931    0.011254
C      -1.590321   -1.926582   -0.814149
C      -1.741984   -2.890119   -1.517702
H      -0.115644    1.771284    0.786419
H       0.721927   -0.429412   -0.588170
H       0.161821   -1.497689    1.651343
H      -3.066388    1.034732    2.042160
H      -1.886437   -3.739030   -2.139316
