20

C       0.096094    1.524809   -0.070350
C       0.042685    0.070148   -0.028238
C       0.004658   -1.134959    0.003553
C      -0.020574   -2.568918    0.027329
C      -0.484692   -3.329527    1.272063
C      -0.865532   -2.605129    2.543150
C      -1.345907   -3.335067    0.036041
C      -2.673208   -2.616693   -0.051483
H       1.130974    1.883703   -0.107777
H      -0.422773    1.923114   -0.949869
H      -0.371593    1.967269    0.816526
H       0.785412   -3.036172   -0.532253
H       0.065113   -4.251316    1.446157
H      -1.313659   -1.630434    2.339863
H      -1.578520   -3.193447    3.131480
H       0.018592   -2.432244    3.166089
H      -1.314738   -4.260192   -0.534432
H      -2.639615   -1.635854    0.427053
H      -2.955002   -2.457523   -1.097854
H      -3.468617   -3.202185    0.422982
