19

C       0.141953    1.640100   -0.127135
C       0.075238    0.126565    0.029179
O       0.678892   -0.466075   -1.121271
C       1.401428   -1.626468   -0.721653
C       1.980015   -1.264441    0.647204
C       0.831271   -0.461552    1.238822
C       0.856790    0.169441    2.575760
N       0.096332   -1.078861    2.356056
H       1.179546    1.985548   -0.103589
H      -0.296916    1.932486   -1.085335
H      -0.413829    2.144060    0.669636
H      -0.981931   -0.187781    0.084829
H       0.732584   -2.498558   -0.642731
H       2.149918   -1.832550   -1.490992
H       2.230061   -2.125914    1.268963
H       2.870400   -0.637895    0.525285
H       1.734454    0.064947    3.209000
H       0.307342    1.095320    2.725535
H      -0.895735   -0.860791    2.279478
