23

C      -0.004165    1.575484   -0.029356
C       0.066797    0.045571    0.018396
C       0.658970   -0.533809   -1.279266
C       0.937552   -2.009453   -1.198495
C       0.934190   -2.687776   -0.052374
C       0.657248   -2.043875    1.280770
C       0.803347   -0.506544    1.262428
C       2.283670   -0.102028    1.318181
O       0.113996    0.047838    2.389437
H       0.981954    2.023155   -0.194315
H      -0.648302    1.899213   -0.853989
H      -0.409808    1.975094    0.901837
H      -0.961484   -0.329661    0.109352
H      -0.031190   -0.331330   -2.109024
H       1.583232    0.003431   -1.543606
H       1.153651   -2.523858   -2.132103
H       1.130988   -3.757294   -0.053190
H      -0.363901   -2.279123    1.611006
H       1.323431   -2.467082    2.046204
H       2.852986   -0.531888    0.489404
H       2.397058    0.984381    1.300456
H       2.734724   -0.470772    2.247609
H       0.562168   -0.255765    3.185952
