21

C      -1.645565   -0.872047   -0.719056
C      -0.287118   -0.376188   -0.173059
C      -0.040276   -0.962463    1.143474
C       0.130447   -1.458898    2.225815
C       0.868287   -0.622676   -1.162644
C       0.695170    0.071850   -2.495550
O       0.524948    1.465269   -2.261247
C       2.280750   -0.747334   -0.648182
C       1.565611   -1.960228   -1.192179
H      -1.921236   -0.326978   -1.625303
H      -1.604396   -1.940584   -0.950209
H      -2.432331   -0.713763    0.022556
H      -0.355759    0.711700   -0.048224
H       0.284366   -1.883064    3.186987
H       1.584810   -0.120694   -3.115265
H      -0.170358   -0.341833   -3.035199
H       0.295164    1.885553   -3.094971
H       3.071757   -0.303046   -1.242629
H       2.437518   -0.700066    0.422670
H       1.241207   -2.708421   -0.477765
H       1.873467   -2.358733   -2.153598
