16

O      -0.001701    0.221111    0.625743
C       0.068458    1.369803    0.236041
C       1.237949    1.935499   -0.432413
C       1.438947    3.276352   -0.540138
N       1.334338    4.018468    0.739000
C       2.874473    3.839101    0.644833
C       3.455739    2.519294   -0.016528
C       2.612936    1.272471   -0.348744
C       2.905892    3.653855   -0.825443
H      -0.783790    2.070900    0.347523
H       1.228051    5.020729    0.550502
H       3.500748    4.446208    1.292755
H       4.531525    2.431260    0.129497
H       2.558405    0.513741    0.437744
H       2.996431    0.782655   -1.252821
H       3.330204    4.228068   -1.638947
