20

C      -0.531497    1.215546   -0.125231
C       0.136799   -0.135768    0.079223
C       1.000448   -0.796745   -1.044566
C       2.094353   -1.163080    0.002134
C       1.383095   -0.212223    0.974753
O       1.711777    0.356526    1.976224
N       0.385403   -1.925471   -1.710826
C      -0.338202   -1.638879   -2.948116
C       0.977514   -2.333319   -2.983110
H       0.177886    1.951930   -0.516960
H      -1.370351    1.144615   -0.824665
H      -0.912855    1.598502    0.826000
H      -0.585176   -0.886114    0.428196
H       1.368438   -0.034118   -1.752151
H       1.998794   -2.207065    0.319088
H       3.140150   -0.947950   -0.227196
H      -1.260165   -2.193684   -3.094493
H      -0.365190   -0.607927   -3.297109
H       1.829687   -1.766382   -3.354436
H       1.032734   -3.404116   -3.155151
