19

C      -0.052094    1.479705    0.091609
C      -0.006975   -0.005884    0.005182
C      -0.034974   -0.839217   -1.040081
C       0.045710   -2.229360   -0.399260
C      -0.962381   -2.049929    0.803775
C       0.089859   -0.967342    1.211771
C       1.162314   -1.978913    0.689951
C       0.041417   -3.454581   -1.248944
O      -0.022287   -3.458932   -2.454035
H       0.841630    1.879889    0.587826
H      -0.120405    1.933436   -0.901013
H      -0.912508    1.821168    0.681705
H      -0.098210   -0.643601   -2.100041
H      -1.968801   -1.713319    0.546793
H      -0.992976   -2.910446    1.480178
H       0.129322   -0.541081    2.214480
H       1.322148   -2.833088    1.356118
H       2.110876   -1.576956    0.328178
H       0.103524   -4.410545   -0.677419
