14

O      -0.323174    1.336068   -1.107906
C       0.734546    1.028665   -0.628214
C       1.472812    1.898098    0.397635
O       2.347659    1.396622    1.060534
C       1.033896    3.356773    0.502318
C       1.598956    4.086637    1.739332
O       2.443440    5.123013    1.173511
C       2.372384    4.960509   -0.160156
N       1.636957    4.054078   -0.661565
H       1.247127    0.065390   -0.830582
H      -0.055678    3.397114    0.415694
H       0.834227    4.567965    2.351399
H       2.221516    3.433479    2.354948
H       2.972857    5.658191   -0.733333
