23

C       0.041103    1.722721   -0.052254
C      -0.071996    0.195024   -0.016694
C       0.682051   -0.487740   -1.168741
C       2.224918   -0.295340   -1.077383
C       2.787732   -1.707131   -1.296845
O       1.783509   -2.577398   -0.802875
C       0.537183   -2.039128   -1.251804
C      -0.548739   -2.725916   -0.435864
O      -0.513244   -4.126897   -0.633548
H       1.081542    2.053754    0.029941
H      -0.360219    2.125269   -0.989314
H      -0.516745    2.178146    0.771661
H       0.308776   -0.178258    0.942434
H      -1.132866   -0.079755   -0.056734
H       0.310005   -0.061410   -2.107205
H       2.611211    0.425026   -1.802373
H       2.497917    0.061211   -0.078995
H       2.969718   -1.898304   -2.367447
H       3.712230   -1.907635   -0.749507
H       0.394288   -2.327311   -2.306861
H      -0.429314   -2.470267    0.627486
H      -1.538001   -2.384352   -0.757659
H       0.406183   -4.387473   -0.503526
