15

N      -0.097927    1.412740   -0.109361
C      -0.060893    0.018793   -0.073656
C      -1.078585   -0.882224    0.031123
C      -2.558341   -0.691730    0.045457
O      -2.965201    0.303239   -0.893860
O      -0.582808   -2.145076    0.105412
N       0.806586   -2.089772    0.052965
C       1.094152   -0.816160   -0.051782
O       2.354731   -0.355308   -0.142005
H       0.685190    1.813693   -0.608361
H      -0.977914    1.754577   -0.475585
H      -3.051406   -1.657813   -0.129267
H      -2.901132   -0.319215    1.017442
H      -2.720504   -0.013525   -1.770529
H       2.950042   -1.115940   -0.113313
