23

C       0.399454    1.598663   -0.038904
C       0.010989    0.110414    0.008401
C       0.373892   -0.597928   -1.272873
C       0.795416   -1.859268   -1.349262
C       0.976160   -2.777712   -0.166510
C       2.176946   -3.720211   -0.361024
C       1.069104   -2.012227    1.147147
C       2.069056   -0.890974    1.305127
C       0.591712   -0.583703    1.233660
H       1.483707    1.716624   -0.133804
H      -0.071941    2.101333   -0.890383
H       0.083841    2.114985    0.873544
H      -1.086375    0.068480    0.102747
H       0.255958   -0.019192   -2.187226
H       1.014724   -2.289675   -2.324731
H       0.076849   -3.412290   -0.108057
H       3.111309   -3.153729   -0.428773
H       2.267063   -4.417950    0.477903
H       2.070271   -4.308934   -1.278593
H       0.907659   -2.629857    2.026768
H       2.576259   -0.779121    2.257015
H       2.675482   -0.636040    0.441947
H       0.124409   -0.286093    2.168712
