22

C       0.021600    1.533398    0.093657
C      -0.098156    0.014355   -0.009450
N       0.549684   -0.497084   -1.201668
C      -0.095384   -0.247596   -2.512461
C       0.219289   -1.693061   -2.888181
C      -0.255534   -2.559463   -3.959945
O       1.086053   -2.042948   -3.951504
C       0.558599   -1.968096   -1.417517
C       1.861133   -2.677834   -1.093653
H       1.072672    1.835684    0.101143
H      -0.465124    2.026369   -0.754742
H      -0.455836    1.898203    1.008217
H       0.383204   -0.452701    0.858472
H      -1.168347   -0.277095    0.027237
H      -1.178536   -0.050549   -2.444749
H       0.375194    0.529515   -3.123252
H      -0.342618   -3.632845   -3.793208
H      -0.904417   -2.158026   -4.737750
H      -0.288387   -2.463520   -0.910293
H       2.688631   -2.226588   -1.645586
H       2.078385   -2.612463   -0.022499
H       1.801810   -3.738354   -1.360757
