17

O       0.449275    1.062703    0.642728
C       0.148439   -0.178945    0.078829
C      -1.307299   -0.775537    0.176312
C      -2.377302    0.305690    0.385583
C      -3.730726   -0.226736    0.290486
C      -4.834410   -0.694649    0.201871
C      -1.183681   -1.259749   -1.306329
C      -0.042085   -0.245386   -1.437247
O       0.352705    0.483401   -2.304577
H       0.608062    1.672962   -0.088995
H       0.867872   -0.938805    0.416195
H      -1.422741   -1.569175    0.914921
H      -2.220566    0.777128    1.362300
H      -2.245930    1.106972   -0.354162
H      -5.816985   -1.090714    0.130802
H      -0.836391   -2.293235   -1.390515
H      -2.043765   -1.114666   -1.962704
