22

C      -2.124219    0.239859    1.910081
C      -1.174748   -0.580295    1.024508
C      -0.988403    0.071519   -0.353134
C       0.170295   -0.806822    1.726388
C       0.301461   -1.906346    2.775538
C       1.031480   -2.049785    1.472649
C       0.663188   -3.109861    0.458552
C       0.911480    0.404270    1.989529
N       1.499112    1.381395    2.190307
H      -1.717107    1.238682    2.099134
H      -3.096799    0.360066    1.422944
H      -2.286193   -0.245456    2.877548
H      -1.622444   -1.569485    0.878440
H      -0.529513    1.061180   -0.257508
H      -0.347145   -0.534140   -1.000486
H      -1.953742    0.196284   -0.853236
H       0.862815   -1.694144    3.677654
H      -0.585564   -2.513904    2.927332
H       2.097994   -1.850366    1.524877
H      -0.409329   -3.319094    0.443814
H       0.966038   -2.820038   -0.552748
H       1.174369   -4.047538    0.701716
