19

C      -0.182973    1.447837   -0.111016
C       0.077592   -0.066958   -0.007027
C       0.752547   -0.573666   -1.199074
C       1.303264   -0.987932   -2.183496
C       0.909456   -0.416152    1.267902
O       2.126808    0.268751    1.275402
C       0.134078   -0.109253    2.555595
C      -1.189022   -0.798046    2.795264
O       0.614150    0.669414    3.352548
H       0.767475    1.983697   -0.134825
H      -0.739538    1.678726   -1.021815
H      -0.761031    1.806054    0.747327
H      -0.883880   -0.591379    0.077818
H       1.794876   -1.353123   -3.050883
H       1.086157   -1.504630    1.253928
H       2.122483    0.782983    2.100147
H      -1.972673   -0.303172    2.209443
H      -1.160037   -1.844756    2.478818
H      -1.451632   -0.728419    3.851633
