25

C      -0.016037    1.567550    0.004557
C       0.002614    0.036842   -0.034631
C       0.682852   -0.501705   -1.300310
C       0.503859   -2.021683   -1.417913
C       0.869295   -2.768892   -0.147021
C       2.193535   -2.551158    0.544074
C       0.917158   -2.056840    1.192431
C       0.418309   -2.804912    2.413905
C       0.674431   -0.540601    1.225503
H       1.003163    1.972235   -0.009085
H      -0.548972    1.981353   -0.858233
H      -0.506339    1.938560    0.911318
H      -1.039612   -0.316759   -0.050874
H       0.264868   -0.016760   -2.190225
H       1.749445   -0.236919   -1.281291
H      -0.550248   -2.226478   -1.650061
H       1.085218   -2.410546   -2.263768
H       0.497491   -3.790639   -0.116816
H       2.692889   -3.412503    0.976732
H       2.872592   -1.808938    0.134612
H       0.632851   -3.876353    2.342656
H       0.894303   -2.431052    3.328792
H      -0.665673   -2.689195    2.535585
H       1.627574   -0.017531    1.385745
H       0.053401   -0.298823    2.096105
