19

C       0.450823    1.453232   -0.350621
C       0.092842    0.040976    0.063942
O       0.596895   -0.967307   -0.855868
C       1.315910   -1.643041    0.190380
C       2.828435   -1.484133    0.139926
O       3.245668   -0.153852   -0.186541
C       3.248393   -0.534777    1.189760
C       2.042082   -0.020281    1.959831
C       0.811988   -0.644496    1.264150
H       1.530907    1.565225   -0.455482
H      -0.016883    1.682120   -1.313560
H       0.075956    2.174383    0.384929
H      -0.998809   -0.055451    0.142737
H       1.025983   -2.696824    0.277584
H       3.469417   -2.276124   -0.238776
H       4.228994   -0.572814    1.659557
H       2.103475   -0.352318    3.002078
H       2.018097    1.074242    1.972102
H       0.108020   -1.052491    1.990212
