16

N       0.089962    0.703642    0.382990
H      -0.440927   -0.191818    0.547123
H       1.048575    0.648460    0.725444
H       0.106728    0.899131   -0.618770
C      -0.778849    1.684585    1.156226
C      -2.235068    1.167469    1.042150
O      -2.125196   -0.296346    0.997145
C      -2.989515    1.658948    2.149283
C      -3.499283    2.029565    3.191966
C      -4.089296    2.473659    4.531441
O      -4.446747    1.513171    5.223173
O      -4.073739    3.700261    4.676579
H      -0.454376    1.637872    2.195560
H      -0.644208    2.690784    0.762092
H      -2.648984    1.451351    0.064882
H      -2.495171   -0.612211    1.833138
