17

C      -0.010960    1.463590    0.058688
C      -0.000590   -0.030836    0.003981
C      -0.041584   -0.802387   -1.085772
C      -0.015060   -2.276887   -0.774695
C       0.051545   -2.284478    0.740414
C       0.062031   -0.862221    1.269834
N       0.094794   -3.289637    1.516692
O       0.073497   -4.493174    0.784599
H       0.888644    1.848862    0.555692
H      -0.061341    1.902063   -0.941515
H      -0.866821    1.833739    0.637628
H      -0.089479   -0.424775   -2.101727
H      -0.900694   -2.819221   -1.132969
H       0.845062   -2.804024   -1.209597
H       0.963708   -0.652473    1.861063
H      -0.788456   -0.667957    1.937305
H       0.110302   -5.154924    1.483261
