20

C      -0.140806    1.650920   -0.159898
C       0.004328    0.134876   -0.038332
C       0.985442   -0.623741   -1.029508
C       1.855421   -0.847346    0.220209
C       2.470071   -1.729607    1.352078
C       1.941178   -0.372558    1.991169
C       2.624994    0.373902    0.831515
O       4.027538    0.358499    0.697328
N       0.695647   -0.611935    1.121905
H       0.787157    2.172118   -0.404731
H      -0.860489    1.879856   -0.954910
H      -0.537215    2.072270    0.770048
H      -1.006165   -0.282600   -0.061591
H       0.536655   -1.529915   -1.440809
H       1.436756   -0.035881   -1.832175
H       1.881936   -2.610692    1.607010
H       3.547675   -1.884479    1.378112
H       1.892640   -0.122135    3.054514
H       2.218665    1.361461    0.612988
H       4.387882    1.090251    1.208075
