15

O      -0.063502    1.388716   -0.017780
C      -0.007258    0.016674   -0.053820
C       1.038255   -0.781863    0.755315
C       0.668839   -2.228530    0.355071
C       1.672237   -1.440780   -0.447524
C       0.453004   -0.920268   -1.279063
C      -0.508177   -1.984821   -0.611132
C      -1.309320   -0.810562   -0.014752
O      -2.463149   -0.565729    0.172173
H       0.830928    1.736828    0.068381
H       1.453306   -0.542528    1.726423
H       0.824181   -3.062930    1.025995
H       2.706648   -1.643390   -0.688064
H       0.397971   -0.619669   -2.320704
H      -0.974805   -2.813535   -1.135423
