18

C       0.019867   -1.170010   -0.534609
C      -0.007596   -0.033169   -0.146338
C      -0.006143    1.343742    0.336290
C       1.378221    1.973042    0.304897
N       1.771633    2.627104   -0.957153
C       1.576680    3.434780    0.235475
C       0.604417    4.603970    0.363044
O       1.582951    5.347279    1.126875
C       2.578450    4.313653    0.980864
H       0.030351   -2.172059   -0.885310
H      -0.681012    1.953706   -0.275267
H      -0.393604    1.373118    1.363512
H       2.140827    1.404227    0.835081
H       2.760308    2.488856   -1.152838
H       0.354213    5.094419   -0.585714
H      -0.313629    4.426096    0.936978
H       2.936338    3.940985    1.949184
H       3.438405    4.649235    0.383590
