19

C       0.271521    1.551619   -0.124757
C       0.144222    0.048568    0.008296
O       0.827917   -0.592924   -1.098940
C       1.186463   -1.893759   -0.698507
C       2.529420   -1.918676   -0.027860
O       3.319685   -0.761982   -0.111835
C       1.258640   -1.930281    0.810201
C       0.742997   -0.575058    1.306730
O       1.713495    0.213665    1.961831
H       1.312189    1.866582   -0.019953
H      -0.108175    1.882012   -1.095177
H      -0.305201    2.045191    0.662562
H      -0.913776   -0.248750   -0.049431
H       0.812210   -2.693671   -1.329303
H       3.119121   -2.830092   -0.046733
H       2.893859   -0.211217   -0.788093
H       1.030300   -2.826612    1.373682
H      -0.062732   -0.716441    2.034098
H       2.537083    0.110998    1.462557
