18

C       0.252722    1.227458    0.191523
O      -0.379557    0.096825   -0.373411
C       0.418373   -0.565805   -1.296636
C       1.415077   -1.629314   -0.889108
C       1.286452   -2.235834    0.497939
O      -0.075081   -2.599738    0.672116
C      -0.693256   -2.782008   -0.595041
C       0.124224   -1.998653   -1.608351
H       1.180816    0.958612    0.714997
H       0.494711    1.979388   -0.575795
H      -0.448264    1.664033    0.906326
H       0.722006    0.056194   -2.142353
H       2.380765   -1.671469   -1.380581
H       1.950061   -3.113431    0.571952
H       1.544251   -1.550703    1.313649
H      -0.707322   -3.845519   -0.883379
H      -1.727721   -2.434916   -0.503984
H       0.106736   -2.325742   -2.641625
