20

C      -0.102774    1.551325    0.183526
C       0.016706    0.033664    0.017640
C       0.719816   -0.581776    1.235473
O      -1.335929   -0.440424   -0.049469
C       0.774727   -0.357507   -1.269957
C       0.099063    0.125272   -2.569484
C       0.726028   -0.426746   -3.763516
C       1.260964   -0.897807   -4.731783
H       0.885167    2.021187    0.190154
H      -0.693022    1.989252   -0.625015
H      -0.605372    1.785213    1.126004
H       0.160464   -0.355307    2.147635
H       0.788461   -1.671836    1.136497
H       1.738117   -0.195726    1.347073
H      -1.310507   -1.403706   -0.051684
H       1.801882    0.021586   -1.224226
H       0.854028   -1.451644   -1.305781
H      -0.959980   -0.154981   -2.535377
H       0.124507    1.220053   -2.623354
H       1.722943   -1.305530   -5.596193
