16

F      -0.028503    0.086028   -0.064540
C      -0.029977    1.420617    0.011499
F       1.247261    1.831266   -0.094702
F      -0.688263    1.886993   -1.063837
C      -0.665672    1.924710    1.292976
C       0.072980    1.486630    2.549178
C      -0.540595    1.886774    3.908985
C      -0.524364    0.371326    4.193087
O      -0.096289    0.082458    2.844794
H      -0.677213    3.018521    1.238281
H      -1.699979    1.570115    1.320239
H       1.137679    1.738055    2.455810
H       0.076900    2.514662    4.552159
H      -1.540414    2.320147    3.834228
H       0.218654    0.049463    4.933592
H      -1.485767   -0.098573    4.427745
