20

C       0.286399    1.592666   -0.053471
C      -0.273875    0.194828    0.086483
C       0.645850   -0.984379    0.288898
C      -0.248458   -0.497385    1.414262
O      -1.450151   -0.045172   -0.649417
C      -1.279810   -0.138393   -2.052602
C      -2.552491   -0.650437   -2.728766
N      -3.552076   -0.984716   -1.876262
O      -2.612781   -0.744433   -3.939107
H       1.147016    1.727822    0.607334
H       0.620938    1.797039   -1.075982
H      -0.471851    2.336115    0.213448
H       0.371490   -1.918689   -0.187691
H       1.713527   -0.806010    0.355839
H       0.202817    0.017907    2.255008
H      -1.107801   -1.109412    1.662643
H      -1.042620    0.833898   -2.503967
H      -0.464392   -0.828648   -2.308977
H      -3.441031   -0.828001   -0.889241
H      -4.432028   -1.291164   -2.255004
