21

O      -0.463182    1.028006    0.999272
C      -0.129300   -0.139313    0.261517
C      -1.408935   -0.940490    0.081372
C      -1.217221   -2.221264   -0.707498
O      -0.146360   -2.530242   -1.182974
C      -2.430889   -3.138132   -0.847517
C      -2.344501   -4.281422    0.152381
C      -2.908367   -4.137989    1.545374
C      -3.579649   -5.048130    0.545617
H       0.338137    1.547235    1.112058
H       0.291413    0.106362   -0.723611
H       0.618412   -0.752441    0.784850
H      -1.844190   -1.189494    1.058411
H      -2.167596   -0.327074   -0.424131
H      -3.362029   -2.580846   -0.696501
H      -2.428263   -3.538031   -1.867327
H      -1.428200   -4.857670    0.064385
H      -2.366279   -4.585457    2.370882
H      -3.415001   -3.212309    1.799708
H      -4.529229   -4.728337    0.129020
H      -3.495490   -6.120258    0.684485
