18

C      -0.000137    1.533560    0.005388
C      -0.270181    0.045485   -0.228936
C       0.709846   -0.569950   -1.222282
N       2.126253   -0.666910   -0.733372
C       2.210406   -2.113238   -1.095406
C       0.726838   -2.077326   -1.382605
N      -0.202986   -2.901011   -1.611724
O       0.288314   -4.220230   -1.640658
H       1.017152    1.683365    0.380738
H      -0.108158    2.110019   -0.920792
H      -0.694891    1.951246    0.739976
H      -0.193475   -0.503242    0.716172
H      -1.287617   -0.108298   -0.608150
H       0.622723   -0.058791   -2.194127
H       2.774619   -0.084645   -1.250375
H       2.815324   -2.348041   -1.981818
H       2.532116   -2.765327   -0.276133
H      -0.511204   -4.731124   -1.806493
