15

N       0.055350    1.374949    0.150800
C      -0.001050    0.005639    0.059352
C      -1.173016   -0.709757    0.027389
C      -1.216956   -2.149448   -0.013235
O      -2.214876   -2.857824   -0.040685
N       0.060600   -2.742760   -0.023007
C       1.244795   -2.056181   -0.002012
C       1.254024   -0.702752    0.038390
O       2.383156    0.081455    0.053007
H       0.929332    1.805485   -0.104782
H      -0.772064    1.888960   -0.103717
H      -2.130710   -0.203051    0.037841
H       0.055719   -3.751105   -0.052763
H       2.152892   -2.648109   -0.022690
H       3.165071   -0.474674   -0.014048
