21

C       0.009361    1.489713   -0.075689
C      -0.019744    0.010252    0.327683
C      -1.411048   -0.569473    0.202759
N      -1.869691   -0.976324   -1.124534
C      -1.707836   -2.015123   -0.090793
C      -0.616978   -3.040882   -0.323781
C      -3.019003   -2.478611    0.510216
N      -3.009510   -3.690648    1.130013
O      -4.030466   -1.798670    0.431211
H       1.017345    1.905167    0.016901
H      -0.315826    1.608843   -1.113595
H      -0.657832    2.086600    0.555878
H       0.676730   -0.551583   -0.301284
H       0.322859   -0.101374    1.364610
H      -2.158848   -0.086334    0.831053
H      -2.869304   -0.784141   -1.197358
H       0.187451   -2.608222   -0.919031
H      -0.181023   -3.398970    0.617103
H      -1.003388   -3.904343   -0.876120
H      -2.170022   -4.224047    1.264022
H      -3.855444   -3.991569    1.585008
