14

O      -0.274014   -0.132558    0.116023
C      -0.203475    1.069397    0.038982
N       0.973550    1.779926   -0.026473
C       0.985859    3.227607   -0.095539
C       1.494885    3.846961    1.140267
N       1.911754    4.309121    2.113019
C       2.237613    1.060337    0.028663
C       3.034870    1.263885   -1.187569
N       3.653555    1.461409   -2.142711
H      -1.086096    1.734685    0.008441
H       1.601088    3.566597   -0.938196
H      -0.034291    3.579349   -0.277585
H       2.826999    1.374890    0.898601
H       1.988071    0.001726    0.143410
