22

C      -0.066166    1.655614   -0.203161
C       0.020585    0.157418    0.107047
C      -1.341892   -0.526658    0.087292
N      -1.967976   -0.654889   -1.239007
C      -2.085023   -2.022717   -1.218211
O      -2.534312   -2.815812   -2.004976
C      -1.418304   -2.093960    0.178846
C      -0.145814   -2.932366    0.285257
C      -0.453160   -4.433366    0.213588
H       0.920403    2.126057   -0.159826
H      -0.468996    1.830237   -1.206920
H      -0.715086    2.173358    0.512046
H       0.685254   -0.330542   -0.613811
H       0.464738    0.012092    1.099846
H      -2.005869   -0.036930    0.812588
H      -2.342100    0.029847   -1.879620
H      -2.141499   -2.416755    0.935589
H       0.545384   -2.664426   -0.522031
H       0.368842   -2.699135    1.225959
H       0.467095   -5.024295    0.245208
H      -1.081374   -4.746437    1.054938
H      -0.988737   -4.672436   -0.709177
