16

O      -0.874298    1.101207    0.324380
C       0.216828    0.925372   -0.163236
C       1.370848    1.884335   -0.130115
C       1.299381    3.083382   -1.169083
C       0.377345    3.803133   -0.138122
C       1.335657    3.098545    0.845974
O       2.602846    3.725248    0.599308
C       2.638182    3.756582   -0.847441
H       0.443549   -0.024817   -0.699282
H       2.310094    1.321555   -0.145332
H       1.035026    2.935985   -2.215456
H       0.382180    4.895541   -0.132845
H      -0.632687    3.401590   -0.106192
H       1.163370    3.001820    1.915645
H       3.513063    3.207755   -1.213762
H       2.688812    4.792215   -1.203854
