16

O      -0.091677    1.477141   -0.089016
C      -0.036671    0.079939   -0.075070
C      -1.361428   -0.650716   -0.103951
C      -1.789260   -0.791612   -1.569013
C      -0.730040   -0.106377   -2.429419
C       0.301448   -0.683866   -1.414893
C       1.665999   -0.938508   -1.779818
N       2.773351   -1.131922   -2.055493
C      -0.788872   -1.749115   -0.974847
H       0.795493    1.825614    0.049127
H       0.601048   -0.303462    0.731002
H      -2.069806   -0.753408    0.706491
H      -2.820520   -0.993703   -1.823796
H      -0.631595   -0.585641   -3.405455
H      -0.747393    0.981753   -2.526261
H      -0.751068   -2.820843   -0.858091
