19

C      -0.035028    1.583221   -0.045289
C       0.033595    0.054564   -0.037881
C      -1.383739   -0.546098    0.054810
C       0.831511   -0.544854   -1.218136
C       1.528277   -1.791978   -0.631251
N       1.664012   -1.434505    0.769730
C       0.822125   -0.443017    1.192736
O       0.701167   -0.047487    2.333060
H       0.962279    2.025826   -0.135088
H      -0.644391    1.944252   -0.880695
H      -0.475744    1.940461    0.889431
H      -1.996743   -0.207682   -0.787300
H      -1.362658   -1.641204    0.037474
H      -1.868301   -0.234873    0.984414
H       0.204300   -0.790713   -2.078675
H       1.591017    0.169333   -1.551541
H       0.919350   -2.698137   -0.762215
H       2.502953   -1.978849   -1.092865
H       2.163975   -1.994302    1.442335
