19

C      -0.089074    1.514853    0.076050
C       0.004446   -0.010276   -0.018511
C       0.775582   -0.513342   -1.263897
C       2.260430   -0.104647   -1.261916
C       0.636025   -1.997352   -1.384140
N      -0.000468   -2.683008   -2.290367
C       0.210617   -3.972927   -1.869853
N       0.922862   -4.100114   -0.785546
O       1.213913   -2.769766   -0.451166
H       0.891989    1.981044    0.205627
H      -0.546991    1.940512   -0.823734
H      -0.705239    1.806932    0.931559
H       0.482309   -0.415584    0.881214
H      -1.007464   -0.430814   -0.047472
H       0.292510   -0.106962   -2.158739
H       2.772075   -0.495119   -0.377229
H       2.773495   -0.489249   -2.147956
H       2.358612    0.983241   -1.264441
H      -0.177110   -4.838396   -2.387547
