19

O       0.020955    1.403018   -0.075819
C      -0.005567   -0.007242    0.055026
C      -1.417659   -0.482275    0.117475
C      -2.541592    0.238031    0.028639
C      -3.720103   -0.675993    0.052410
C      -3.720967   -1.922862   -0.873020
C      -2.321399   -2.266151   -1.367129
C      -1.781110   -1.954613    0.087250
C      -3.270132   -2.014999    0.566856
H       0.939128    1.686882   -0.059335
H       0.511145   -0.498417   -0.790261
H       0.528442   -0.334490    0.965992
H      -2.597733    1.310913   -0.092350
H      -4.706623   -0.311255    0.315268
H      -4.651007   -2.255299   -1.319163
H      -2.250099   -3.335435   -1.582962
H      -1.889125   -1.692021   -2.194138
H      -1.050426   -2.653948    0.494521
H      -3.681798   -2.549048    1.414799
