21

C      -1.564437   -0.626961   -0.530914
O      -0.237825   -0.355378   -0.123563
C       0.746521   -0.750417   -1.033811
C       0.780705    0.022727   -2.351378
C       0.941837    1.463233   -2.177107
C       1.070059    2.650188   -2.023714
C       1.226389    4.085344   -1.835177
C       2.030278   -1.165487   -0.391395
C       1.135744   -2.210129   -1.035494
H      -1.875318   -0.001829   -1.379370
H      -1.697726   -1.683530   -0.804807
H      -2.208662   -0.396583    0.320948
H       1.601515   -0.376914   -2.959532
H      -0.135045   -0.181868   -2.922301
H       0.403971    4.641795   -2.298644
H       1.242184    4.345596   -0.770931
H       2.160926    4.448028   -2.277789
H       2.961282   -0.901275   -0.880651
H       2.057525   -1.136196    0.691380
H       0.585352   -2.865262   -0.369789
H       1.455635   -2.670467   -1.964462
