22

C      -0.071931    1.556385    0.016622
C       0.048650    0.027334    0.006340
C       0.669409   -0.494061   -1.301568
C       0.866107   -2.012797   -1.254692
C       1.886768   -2.422901   -0.179694
C       1.676062   -1.710309    1.157970
C       2.279191   -0.342383    1.385099
C       0.785378   -0.485989    1.237058
H       0.916257    2.027229   -0.029826
H      -0.655210    1.912835   -0.839663
H      -0.564581    1.910361    0.928629
H      -0.969387   -0.388306    0.054379
H       0.017893   -0.218410   -2.139024
H       1.632164    0.001952   -1.489767
H      -0.101839   -2.485318   -1.039554
H       1.187052   -2.391007   -2.231815
H       1.835067   -3.505861   -0.025052
H       2.900020   -2.219916   -0.550153
H       1.659355   -2.363267    2.025315
H       2.680412   -0.102383    2.363970
H       2.839516    0.092588    0.562612
H       0.218325   -0.372058    2.158044
