15

C       0.068138    1.512838   -0.570734
C      -0.039739    0.096665   -0.065474
N       1.193502   -0.666506    0.061096
C       0.454791   -0.343135    1.293877
C       1.094621    0.619506    2.247101
O       1.949135    1.422096    1.937830
C       0.576061    0.546743    3.606025
C       0.147887    0.471610    4.728824
H       0.963223    1.994286   -0.175448
H       0.126908    1.511407   -1.664353
H      -0.812010    2.095965   -0.280211
H      -0.927331   -0.443048   -0.396651
H       1.050023   -1.646169   -0.169242
H      -0.119169   -1.129870    1.777207
H      -0.219254    0.422955    5.725286
