18

C       0.002681    1.601235    0.041295
C       0.007934    0.074706   -0.039840
O       0.800479   -0.501467    0.991771
C      -1.408510   -0.533142   -0.015784
N      -2.221812   -0.015717   -1.102251
C      -1.458173   -2.068869    0.142221
O      -2.055721   -1.929520    1.475758
C      -2.023088   -0.565178    1.408741
O      -2.374492    0.217506    2.237302
H       1.032285    1.963368    0.102167
H      -0.457303    2.049420   -0.844015
H      -0.543466    1.942649    0.927994
H       0.477487   -0.240364   -0.978604
H       0.572436   -0.070652    1.824036
H      -3.133962   -0.463479   -1.108672
H      -2.393429    0.976336   -0.969205
H      -2.137232   -2.590053   -0.535801
H      -0.493275   -2.569683    0.209941
