21

C       0.146520    1.643848    0.042376
C      -0.255868    0.177530   -0.150642
C       0.607518   -0.507220   -1.195272
O       2.003737   -0.567298   -0.809385
C       2.081293   -1.971633   -1.111604
C       0.562501   -2.051620   -1.392893
C      -0.279270   -2.878092   -0.413444
C      -0.097947   -4.362377   -0.643650
O      -0.991803   -5.139674   -0.858217
H       1.197295    1.715145    0.336502
H       0.016903    2.214877   -0.883538
H      -0.459912    2.120038    0.818066
H      -0.170340   -0.356058    0.802467
H      -1.305711    0.109927   -0.464808
H       0.505477    0.025169   -2.153525
H       2.725324   -2.173018   -1.977206
H       2.449776   -2.552969   -0.256399
H       0.316333   -2.341244   -2.417700
H       0.035369   -2.661209    0.616828
H      -1.344591   -2.646529   -0.501407
H       0.961331   -4.710395   -0.607567
