18

C      -0.338109    1.568143   -0.044512
C      -0.059332    0.093737    0.047029
C      -1.203925   -0.928217    0.259641
N      -0.335805   -1.718492    1.186633
C       0.713314   -0.680217    1.154000
C       1.751068   -0.950414    0.026184
O       0.890420   -0.355661   -0.954823
C       3.048096   -0.202446    0.233350
O       3.270817    0.916248   -0.150045
H       0.601091    2.126469   -0.054503
H      -0.876562    1.788539   -0.973427
H      -0.954177    1.905680    0.794771
H      -2.086762   -0.487097    0.738714
H      -1.512711   -1.477045   -0.635028
H      -0.739058   -1.851908    2.105630
H       1.057313   -0.272272    2.105775
H       1.945115   -2.014521   -0.156395
H       3.792516   -0.771933    0.839706
