16

C      -0.367828   -1.204051   -0.525129
C      -0.163128   -0.051670   -0.250495
C       0.078423    1.339564    0.102725
C      -0.325021    1.668289    1.574756
O       0.507100    2.741257    1.992052
C       1.708644    2.667297    1.267352
C       2.440258    1.352115    1.189943
C       1.537400    1.799979    0.054962
H      -0.544918   -2.220561   -0.775753
H      -0.493730    1.985138   -0.575259
H      -1.366383    1.984398    1.669762
H      -0.174508    0.782983    2.205326
H       2.241938    3.610113    1.273240
H       3.508863    1.392290    1.008995
H       2.127886    0.527249    1.820941
H       1.963096    2.047058   -0.909541
