19

C      -0.156183    1.491175   -0.002513
C       0.042542    0.007877    0.030209
N       0.169988   -0.679686   -1.122080
N       0.324889   -1.930303   -0.672816
C       0.524747   -3.344283   -1.007549
C       0.509609   -3.583150    0.559453
C       0.304007   -2.074165    0.659208
C       0.118018   -0.816175    1.202680
C       0.015534   -0.374723    2.629363
H       0.646432    2.018268    0.527134
H      -0.172273    1.840891   -1.036736
H      -1.099265    1.783225    0.474819
H      -0.302239   -3.795242   -1.562891
H       1.472586   -3.557067   -1.509535
H      -0.316686   -4.204833    0.912173
H       1.448166   -3.967919    0.965338
H       0.799323    0.346122    2.892275
H      -0.944826    0.111706    2.839500
H       0.108900   -1.223262    3.312715
