17

C       0.012596    1.540662    0.126025
C      -0.037933    0.009770   -0.030067
C       0.685472   -0.497659   -1.242144
C       0.154988   -0.900916   -2.428338
O       1.115881   -1.299091   -3.294454
C       2.313745   -1.139074   -2.651428
C       2.113288   -0.658556   -1.392278
N       3.054586   -0.452203   -0.370298
H       1.042420    1.908818    0.194748
H      -0.450438    2.034177   -0.733830
H      -0.514382    1.860357    1.030716
H       0.387625   -0.459371    0.866152
H      -1.085180   -0.309032   -0.074860
H      -0.860109   -0.966390   -2.786500
H       3.191867   -1.423603   -3.206320
H       4.007560   -0.455680   -0.710837
H       2.893404    0.405425    0.142855
