21

C       0.045792    1.534981    0.022471
C       0.018651    0.032222   -0.044055
C      -0.067965   -0.646078   -1.192481
C      -0.064904   -2.153575   -1.273400
C       0.732271   -2.768151   -0.111022
C       0.238641   -2.231296    1.231375
O       1.287788   -2.148027    2.228939
C       1.304629   -0.707277    2.160497
C       0.036499   -0.698731    1.266695
H       0.952901    1.894878    0.525577
H       0.012638    1.983441   -0.974060
H      -0.803106    1.923082    0.600674
H      -0.133848   -0.096689   -2.129364
H      -1.095816   -2.538884   -1.276845
H       0.369128   -2.473488   -2.227172
H       0.684685   -3.861850   -0.131034
H       1.785338   -2.487049   -0.219332
H      -0.607798   -2.820584    1.604319
H       1.215157   -0.248623    3.151626
H       2.212427   -0.328936    1.670601
H      -0.844127   -0.418459    1.856125
