16

C       0.056233    1.551861    0.020745
C       0.040143    0.015313    0.031486
N       0.771025   -0.458768    1.207719
C      -1.416691   -0.537144    0.084929
C      -2.174153   -0.077730    1.240012
C      -2.823891    0.301007    2.176716
C       0.649713   -0.484802   -1.228793
N       1.152902   -0.900610   -2.183605
H       1.083655    1.922924   -0.032907
H      -0.491087    1.941427   -0.841155
H      -0.407237    1.914839    0.939732
H       0.828853   -1.473246    1.207391
H       1.724947   -0.110206    1.189023
H      -1.929775   -0.248460   -0.839602
H      -1.371886   -1.633317    0.079413
H      -3.392981    0.629397    3.010994
