16

C       0.089913    1.571612   -0.018370
C      -0.059294    0.042344   -0.014161
O      -1.419294   -0.333526   -0.001334
C       0.684582   -0.624004   -1.179631
C       2.003418   -1.076259   -0.582188
O       3.005738   -1.433296   -1.110901
O       1.896327   -1.043095    0.810388
C       0.671317   -0.547396    1.189167
N       0.192329   -0.571578    2.349967
H       1.140646    1.877468   -0.065219
H      -0.434546    1.979785   -0.886537
H      -0.350126    1.988748    0.890960
H      -1.696457   -0.321997    0.925095
H       0.131746   -1.509471   -1.509189
H       0.858208    0.014213   -2.046748
H       0.813356   -1.019983    3.023262
