17

C      -0.014102    1.481366    0.006603
C       0.009817    0.026090   -0.003012
C       0.037895   -1.176723    0.000689
C       0.049476   -2.644799   -0.026574
C      -1.392259   -3.197212    0.127917
C       0.678843   -3.153418   -1.350519
C       0.865839   -3.142173    1.102316
N       1.498243   -3.556834    1.975944
H       0.575553    1.876882    0.840488
H       0.401722    1.891371   -0.919976
H      -1.036137    1.860926    0.111205
H      -2.003409   -2.840293   -0.704669
H      -1.380641   -4.290394    0.120417
H      -1.839644   -2.854978    1.062941
H       1.698484   -2.780191   -1.462692
H       0.698566   -4.246429   -1.363844
H       0.079991   -2.796210   -2.191872
