19

C      -1.402250    0.996939    0.167179
C      -0.119437    0.185950    0.107821
O       0.720661    0.252517    0.977311
C       0.030339   -0.740665   -1.082924
C       1.399788   -1.443687   -1.307753
C       0.692938   -2.822980   -1.295223
O       0.746741   -3.481646   -0.018730
C      -0.499387   -2.873408    0.395957
C      -0.662147   -2.144794   -0.955515
H      -1.409922    1.735313   -0.643359
H      -2.277213    0.354436    0.017408
H      -1.476639    1.511553    1.125822
H      -0.337690   -0.237775   -1.982544
H       1.894640   -1.177027   -2.244210
H       2.092592   -1.320190   -0.473942
H       0.865735   -3.506969   -2.129856
H      -1.266253   -3.633080    0.590889
H      -0.378378   -2.247427    1.287591
H      -1.594042   -2.299117   -1.497651
