14

O      -0.154701   -0.043268   -0.065400
C      -0.104950    1.154745   -0.028040
C       1.186146    1.868087    0.121159
N       2.169518    2.464471    0.242875
C      -1.319767    2.095385   -0.098781
O      -2.476552    1.387492   -0.462115
C      -3.376524    1.309317    0.648082
C      -2.776714    2.207422    1.691571
C      -1.607834    2.676857    1.271658
H      -1.093302    2.869058   -0.850532
H      -4.371854    1.637356    0.319547
H      -3.464590    0.269081    0.994280
H      -3.255348    2.418877    2.638912
H      -0.929222    3.339263    1.790960
