23

C       0.239065    1.492886   -0.308006
C      -0.055521    0.028325    0.040388
C       0.643079   -0.443453    1.297640
C       2.095197   -0.892510    1.236224
C       1.002910   -1.882412    1.548014
O       0.821147   -2.194084    2.903681
C      -0.064176   -1.216756    3.475494
C       0.206576   -1.121790    4.966085
C       0.173669    0.076293    2.662972
H       1.311910    1.652002   -0.458644
H      -0.279401    1.792689   -1.224026
H      -0.085370    2.165828    0.492890
H      -1.139325   -0.110882    0.154772
H       0.246714   -0.610929   -0.798504
H       2.561102   -0.941829    0.256092
H       2.761588   -0.623234    2.049089
H       0.757214   -2.684913    0.857665
H      -1.102321   -1.550906    3.311053
H       1.234285   -0.791812    5.147483
H      -0.477889   -0.407263    5.434299
H       0.068379   -2.094663    5.446078
H       0.926111    0.709136    3.147600
H      -0.744873    0.664782    2.575659
