17

C       0.058900    1.499719    0.067426
C       0.008978   -0.035313   -0.013498
C       0.727922   -0.603547    1.200013
O       1.873039   -0.967693    1.203803
C      -1.460137   -0.565133   -0.053299
C      -2.190669   -0.049573   -1.213828
C      -2.773836    0.382402   -2.170716
C      -1.484256   -2.031461   -0.014264
C      -1.463658   -3.231044    0.036066
H       1.095029    1.846161    0.039564
H      -0.482628    1.941856   -0.772249
H      -0.397422    1.862536    0.995915
H       0.536650   -0.381218   -0.906090
H       0.116181   -0.611246    2.134011
H      -1.961434   -0.193844    0.854452
H      -3.300605    0.754536   -3.014665
H      -1.453210   -4.292420    0.077346
