18

C       0.160677    1.418065    0.248494
C       0.078233   -0.070490   -0.092416
C       0.667337   -0.441303   -1.468543
C       2.240380   -0.364342   -1.525227
C       2.266527   -1.900041   -1.502699
O       3.132306   -2.707825   -1.351384
C       0.745760   -1.997131   -1.695968
C      -0.005177    0.279242   -2.543303
N      -0.540177    0.848700   -3.395973
H       1.196266    1.773671    0.257651
H      -0.393939    2.020379   -0.477009
H      -0.263009    1.606467    1.238806
H       0.613113   -0.661519    0.661676
H      -0.965802   -0.402922   -0.065019
H       2.630893    0.039631   -2.463409
H       2.731972    0.142838   -0.691653
H       0.199004   -2.615496   -0.979733
H       0.480574   -2.309215   -2.710074
