18

C       0.068139    1.563317   -0.017841
C       0.024214    0.034464    0.020748
C       0.653319   -0.652212   -1.216305
C       1.210837   -2.019105   -0.736382
O       2.339176   -2.473213   -1.459725
C       1.475086   -1.798223    0.743325
O       2.220876   -0.587413    0.978649
C       0.796946   -0.577785    1.180391
H       1.104733    1.913384   -0.056148
H      -0.454507    1.951331   -0.897882
H      -0.403599    1.998533    0.869665
H      -1.020071   -0.291336    0.127608
H      -0.052116   -0.763001   -2.042694
H       1.491533   -0.051640   -1.583433
H       0.458242   -2.808723   -0.848723
H       3.050220   -1.845025   -1.285086
H       1.714248   -2.630177    1.400523
H       0.480332   -0.416671    2.208626
