16

C       0.114201    1.519060    0.016453
C       0.025948    0.022252   -0.024399
C      -0.128660   -0.674094   -1.166858
O      -0.206732   -2.024905   -1.186669
C      -0.129393   -2.750887   -0.014786
O      -0.201404   -3.949910   -0.057312
C       0.040342   -1.934090    1.208752
C       0.128446   -2.689865    2.498298
N       0.111086   -0.643547    1.189276
H       1.063093    1.836294    0.461434
H       0.038331    1.951988   -0.984154
H      -0.686821    1.934739    0.636647
H      -0.204662   -0.246224   -2.158651
H       0.967773   -3.393226    2.473348
H       0.251530   -1.992687    3.327336
H      -0.771453   -3.295764    2.649285
