23

C      -0.340362    1.537270   -0.009583
C       0.016046    0.052330   -0.002646
C       0.804493   -0.458936   -1.250642
C       1.949802   -1.253706   -0.582370
O       1.344415   -1.735651    0.629426
C       0.943002   -0.451773    1.132830
C       2.280503    0.318153    1.179669
C       3.035259   -0.284320   -0.049993
C       4.321792   -1.011600    0.343074
H       0.537021    2.171563   -0.173000
H      -1.053689    1.758818   -0.810162
H      -0.803113    1.842606    0.935779
H      -0.911603   -0.523310    0.082751
H       0.187681   -1.103236   -1.881474
H       1.179052    0.359908   -1.872943
H       2.333132   -2.098095   -1.157411
H       0.448067   -0.576345    2.097233
H       2.160823    1.402328    1.124914
H       2.811950    0.091441    2.108129
H       3.263184    0.486776   -0.793276
H       4.094845   -1.832374    1.031106
H       4.829451   -1.430795   -0.532721
H       5.022136   -0.334407    0.843623
