20

C      -0.208028    1.502688   -0.075243
C      -0.101536    0.051125   -0.037604
C       0.002405   -1.147667    0.000567
C       0.083752   -2.609690    0.025435
C      -1.330736   -3.227050    0.098674
N       0.900666   -3.066464   -1.109988
C       1.179390   -4.490866   -1.160495
C       2.363899   -4.762857   -2.076041
O       2.489152   -5.750261   -2.751492
H       0.468376    1.929358   -0.823955
H      -1.225235    1.823951   -0.324776
H       0.051220    1.944087    0.893370
H       0.630881   -2.912041    0.930621
H      -1.277638   -4.317507    0.167762
H      -1.866420   -2.853611    0.975867
H      -1.908866   -2.960436   -0.791804
H       0.477838   -2.748495   -1.976117
H       1.492205   -4.811461   -0.154407
H       0.348900   -5.147800   -1.460765
H       3.125322   -3.951172   -2.060623
