18

C      -0.095135    1.513995    0.141659
C      -0.041020    0.032028    0.004179
C      -0.010277   -0.792587   -1.097877
N      -0.069915   -0.425114   -2.454280
N       0.033127   -2.116333   -0.727785
C       0.027760   -2.107364    0.589770
C       0.011455   -3.302764    1.486212
O       0.450369   -2.881525    2.774288
N      -0.011776   -0.845548    1.080809
H       0.861168    1.957515    0.451747
H      -0.367218    1.956658   -0.820714
H      -0.851117    1.831298    0.870569
H       0.653016    0.235337   -2.713757
H       0.028426   -1.254534   -3.027664
H      -1.006257   -3.722386    1.538850
H       0.661158   -4.079508    1.059155
H       0.253891   -3.582428    3.401624
H       0.033201   -0.619689    2.060495
