21

C       0.007725    1.421999   -0.230120
C       0.020979   -0.026666   -0.076437
C       0.069868   -1.222744    0.069516
C       0.045348   -2.675075    0.205111
C      -1.389099   -3.235635    0.077509
O      -2.023167   -2.747609   -1.098321
C      -1.381229   -4.767444   -0.056848
C      -2.790011   -5.358057    0.029621
O      -0.735390   -5.132865   -1.268573
H       0.798049    1.887256    0.369055
H       0.167262    1.715709   -1.273366
H      -0.947116    1.850375    0.093739
H       0.660298   -3.144351   -0.571437
H       0.462721   -2.977816    1.173453
H      -1.965206   -2.946187    0.970026
H      -1.801221   -1.810548   -1.173314
H      -0.762878   -5.181600    0.749224
H      -3.436994   -4.913142   -0.732092
H      -2.749596   -6.438198   -0.132093
H      -3.237564   -5.168454    1.011408
H      -1.130473   -4.566062   -1.944779
