15

O      -0.351162    0.057152   -0.063843
C      -0.081427    1.162942    0.321791
C       1.234515    1.875587    0.011508
C       2.322061    0.956458   -0.643662
C       2.331982    1.885881   -1.858125
O       3.030517    1.987349   -2.820913
C       1.134588    2.704584   -1.343904
C       1.667589    2.661022    1.149692
C       1.998513    3.302174    2.111538
H      -0.795997    1.768120    0.917801
H       3.265234    0.847620   -0.106392
H       1.907826   -0.030648   -0.874192
H       0.214746    2.516227   -1.906257
H       1.293298    3.780604   -1.255261
H       2.303769    3.869270    2.956396
