16

C      -0.145557    1.451177   -0.056311
C       1.259244    0.962295    0.152577
C       0.123616   -0.038334    0.048452
C      -0.317356   -0.805106    1.218439
C      -0.785613   -2.075144    1.374285
C      -1.050934   -2.244693    2.773948
C      -0.726495   -1.067677    3.363481
O      -0.276774   -0.178961    2.431059
H      -0.646129    1.918375    0.783782
H      -0.421568    1.845466   -1.027903
H       1.958854    1.017113   -0.673971
H       1.700347    1.101879    1.132647
H       0.062370   -0.607637   -0.872567
H      -0.924490   -2.801759    0.589238
H      -1.431866   -3.125506    3.266604
H      -0.749960   -0.706503    4.377927
