17

C      -0.188132    1.347821   -0.115833
O       0.312155    0.042292    0.109107
C       0.781937   -0.571219   -1.050930
C       1.312174   -1.983571   -0.865384
N       0.157731   -2.831547   -0.475260
C       0.384807   -2.521500   -1.905936
C      -0.291641   -1.152641   -2.082141
O      -1.631663   -1.069584   -1.699234
H       0.588323    2.008249   -0.533833
H      -1.049990    1.336196   -0.793603
H      -0.498715    1.742494    0.854490
H       1.512952    0.063422   -1.576713
H       2.323004   -2.283816   -0.619941
H       0.513188   -3.769015   -0.297570
H       0.540090   -3.306970   -2.634741
H      -0.199131   -0.727085   -3.083080
H      -1.676275   -1.530662   -0.848781
