22

C       0.457668    1.354133    1.177109
C       0.188911   -0.100672    0.817960
C       0.709585   -0.450062   -0.595479
C       1.029686   -1.921877   -0.824288
C       0.935214   -2.868356    0.334421
C       0.503048   -2.277796    1.672028
O       0.818223   -0.899694    1.806012
N       0.048893   -2.995725   -0.824217
C      -1.378996   -2.745886   -0.753108
H       1.535664    1.542363    1.200369
H       0.003666    2.022771    0.439088
H       0.046058    1.589266    2.162065
H      -0.898843   -0.276884    0.863098
H       0.001187   -0.082654   -1.348872
H       1.644087    0.101025   -0.756555
H       1.826506   -2.077006   -1.550450
H       1.654655   -3.681096    0.411259
H      -0.574298   -2.434117    1.847398
H       1.040886   -2.781213    2.479313
H      -1.747481   -2.556246   -1.766715
H      -1.876238   -3.648750   -0.382841
H      -1.697026   -1.905508   -0.120555
