18

O      -0.095269    1.447130   -0.401814
C       0.063323    0.058222   -0.146027
C      -1.306959   -0.572890    0.073357
O      -2.182117   -0.235689   -1.004517
C      -1.397396   -2.081710    0.289236
N      -2.676659   -2.320904    0.994054
C      -2.840780   -1.188141    1.913220
C      -1.999032   -0.038968    1.352239
O      -1.881662    1.076724    1.804657
H      -0.500048    1.817616    0.397551
H       0.538916   -0.373386   -1.033032
H       0.715971   -0.128505    0.719518
H      -1.954891    0.679987   -1.227469
H      -1.368491   -2.630742   -0.653627
H      -0.567325   -2.426000    0.920270
H      -3.415053   -2.274539    0.299205
H      -3.886743   -0.899644    2.043730
H      -2.448324   -1.433368    2.910817
