21

C       0.038366    1.525438   -0.098018
C       0.079908    0.007468    0.129924
C       0.784758   -0.331573    1.451343
C      -1.327300   -0.588462    0.093568
C      -2.070765   -0.706463   -1.260223
C      -1.340440   -2.037142   -1.636334
O      -2.565666   -2.772252   -1.927166
C      -2.890513   -1.940323   -0.773616
C      -1.503748   -2.117206   -0.083125
H       1.046071    1.953816   -0.095759
H      -0.430327    1.776184   -1.054948
H      -0.534680    2.022926    0.693771
H       0.661431   -0.441461   -0.688293
H       0.240775    0.093540    2.303498
H       0.851610   -1.413177    1.606019
H       1.801740    0.073725    1.472895
H      -1.939012   -0.161466    0.899985
H      -2.411728    0.065620   -1.950288
H      -0.470027   -2.213335   -2.266785
H      -3.893587   -1.990687   -0.350789
H      -1.202186   -2.943736    0.560666
