21

C      -0.215072    1.577202    0.058413
C       0.043438    0.081245    0.015202
C       0.809363   -0.593992   -1.171396
C       2.068832    0.200656   -1.561288
C       2.872523    0.540539   -0.325344
C       2.415149    0.168839    0.872282
C       1.117160   -0.601979    0.934427
C       1.195177   -1.711873   -0.170124
O       0.163986   -2.677023   -0.122290
H       0.704487    2.162079   -0.026373
H      -0.883872    1.875808   -0.757290
H      -0.702008    1.859217    0.999130
H      -0.895711   -0.460715    0.146170
H       0.230398   -0.904318   -2.044682
H       2.678097   -0.386469   -2.262635
H       1.795307    1.117360   -2.103062
H       3.799171    1.095681   -0.440969
H       2.952745    0.395711    1.787857
H       0.831522   -0.898494    1.946828
H       2.179312   -2.181705   -0.300205
H       0.310430   -3.227799    0.653492
