20

O      -0.043499    1.406099    0.347466
C      -0.140833    0.152777   -0.295834
C      -1.375207   -0.596099    0.178295
C      -1.406897   -2.119843   -0.038457
C      -1.209821   -2.208465    1.495462
O      -1.314435   -0.765274    1.626745
C      -2.256936   -2.932303    2.301807
C      -2.692470   -2.394765    3.611330
N      -3.600955   -2.359902    2.446461
H      -0.114645    1.221595    1.292441
H      -0.204554    0.342244   -1.373431
H       0.754198   -0.466461   -0.115799
H      -2.279131   -0.042875   -0.101009
H      -2.363703   -2.512069   -0.385505
H      -0.600004   -2.527553   -0.650307
H      -0.210659   -2.556396    1.790757
H      -2.243903   -4.011741    2.155551
H      -2.986171   -3.072052    4.407799
H      -2.253161   -1.456365    3.936834
H      -3.578691   -1.411637    2.073275
