17

C      -0.142789    1.558174    0.011261
C      -0.046919    0.055496    0.002572
C      -0.020340   -0.691011   -1.184096
N      -0.052656   -0.084601   -2.421343
N      -0.011710   -2.036770   -1.201486
C      -0.018710   -2.626135   -0.012091
N       0.002214   -2.049673    1.183443
C      -0.006538   -0.703799    1.180721
N      -0.024304   -0.110840    2.424707
H       0.838274    2.054437    0.008430
H      -0.694854    1.920647   -0.861727
H      -0.684963    1.911138    0.894293
H       0.365605    0.826764   -2.509912
H       0.151003   -0.717889   -3.180103
H      -0.026721   -3.714745   -0.017932
H       0.188083   -0.752175    3.174243
H       0.394472    0.799774    2.518252
