17

C      -0.117356    1.517704    0.113144
C      -0.012426    0.067336    0.054799
C       0.096201   -1.130524    0.008036
C       0.145803   -2.593270   -0.040443
C      -1.310186   -3.125641   -0.037271
O      -1.760284   -3.828031    0.822243
C       0.818207   -3.111963   -1.233440
C       1.314638   -3.575129   -2.227371
C       1.937850   -4.124589   -3.422229
H       0.873365    1.983621    0.149066
H      -0.638937    1.912639   -0.765288
H      -0.669713    1.840010    1.002346
H       0.617593   -2.989996    0.867192
H      -1.899259   -2.789972   -0.915615
H       1.909468   -5.219493   -3.416674
H       1.427051   -3.781947   -4.328519
H       2.987069   -3.818666   -3.495976
