21

O      -0.044694    1.341850    0.378405
C       0.037259   -0.034175    0.091417
C       1.048929   -0.520392   -0.912094
C       1.229479   -0.818906    0.570714
C      -1.343015   -0.648514    0.135805
C      -2.048562   -0.518765    1.517752
C      -3.497077   -0.311678    1.149976
C      -3.654927   -0.050690   -0.146422
C      -2.341594   -0.034273   -0.888868
H       0.838581    1.720742    0.347148
H       0.782946   -1.335073   -1.577365
H       1.709894    0.215978   -1.359607
H       2.009341   -0.279122    1.099704
H       1.086641   -1.837185    0.916754
H      -1.234510   -1.714241   -0.091954
H      -1.885584   -1.400038    2.148963
H      -1.659106    0.343726    2.073725
H      -4.294239   -0.335699    1.885316
H      -4.600486    0.170646   -0.629843
H      -2.051305    0.992177   -1.147334
H      -2.369785   -0.599473   -1.827690
