16

C      -0.221132    1.296245    0.422257
C       0.114436   -0.144435    0.033741
N      -1.023285   -1.043804    0.176656
C      -1.650515   -1.600562   -0.884953
O      -1.334199   -1.444510   -2.047539
C      -2.860362   -2.513052   -0.561886
C      -3.201528   -2.644004    0.847756
N      -3.424558   -2.708679    1.980617
H       0.663076    1.932004    0.315240
H      -1.012676    1.696602   -0.217510
H      -0.556653    1.361374    1.462789
H       0.419490   -0.203865   -1.012737
H       0.941587   -0.521424    0.646658
H      -1.382940   -1.223041    1.102138
H      -3.716273   -2.117849   -1.117368
H      -2.640418   -3.498142   -0.984828
