12

N      -0.012377    1.363884    0.009109
C      -0.054175    0.034216    0.001385
C      -1.133662   -0.840953    0.002441
C      -0.542217   -2.128305   -0.008015
N       0.757919   -2.075016   -0.015389
O       1.072492   -0.667431   -0.008933
N      -2.491027   -0.477291    0.011724
O      -3.334894   -1.367238    0.011353
O      -2.750678    0.738844    0.019740
H       0.863982    1.855409    0.004603
H      -0.902011    1.841433    0.015204
H      -1.043562   -3.084858   -0.010622
