23

C       0.015103    1.463605   -0.009071
C       0.024020   -0.046678    0.126781
O       0.992219   -0.654003   -0.782072
C       1.795549   -1.096030    0.327207
C       3.274671   -0.966446    0.145595
C       0.767434   -0.602844    1.334111
C       1.035520   -2.098620    1.163712
C       0.026663   -3.041496    0.536385
C       1.794734   -2.702868    2.333858
H       1.008447    1.879060    0.184972
H      -0.289295    1.750404   -1.020233
H      -0.692511    1.905449    0.701687
H      -0.980896   -0.451996   -0.050043
H       3.555744    0.070713   -0.062427
H       3.819823   -1.305845    1.029074
H       3.598012   -1.577146   -0.705750
H       0.892595   -0.094703    2.283222
H      -0.362702   -2.644666   -0.402708
H       0.497893   -4.006334    0.315754
H      -0.813540   -3.233076    1.213962
H       1.095241   -3.037041    3.108874
H       2.380779   -3.574087    2.019481
H       2.478608   -1.986381    2.798818
