15

O       0.103732    1.387907   -0.024308
C       0.043992    0.026566   -0.002116
C       0.014735   -0.830563    1.319132
O      -1.411630   -0.568271    1.525968
C      -1.306980   -0.804029    0.087683
C      -0.318230   -1.990196    0.342747
N       0.735585   -2.045535   -0.665738
C       0.918087   -0.701665   -0.993599
N       1.593934   -0.084700   -1.872012
H       0.698996    1.608282   -0.760302
H       0.681815   -0.808550    2.180690
H      -2.213388   -0.738818   -0.515278
H      -0.682179   -2.935629    0.732441
H       0.676201   -2.725955   -1.410589
H       2.121547   -0.701718   -2.489215
