16

C      -0.002559    1.526729   -0.002517
C       0.001174    0.022253   -0.007562
C      -0.052858   -0.715058   -1.187077
C      -0.031312   -2.105425   -1.148211
N       0.037915   -2.795919   -0.007537
C       0.084115   -2.099544    1.124741
C       0.072237   -0.699915    1.197369
N       0.192495   -0.047497    2.426324
H       0.867373    1.923436    0.534374
H       0.012335    1.924837   -1.019619
H      -0.895671    1.930894    0.494078
H      -0.108598   -0.200101   -2.141474
H      -0.071316   -2.685424   -2.066286
H       0.138091   -2.676822    2.048057
H      -0.018288   -0.629302    3.225075
H      -0.282406    0.841431    2.489633
