22

C      -1.402350   -0.709632   -0.481795
C      -0.110021   -0.059449    0.032517
C      -0.335641    1.417104    0.366816
O       0.271045   -0.669605    1.272896
C       1.003586   -0.193570   -1.021731
C       2.463260    0.245693   -0.726133
N       3.020957   -1.046699   -1.277023
C       2.534925   -2.093771   -0.368822
C       1.593076   -1.560664   -1.383804
H      -1.765476   -0.217877   -1.389829
H      -1.238022   -1.767521   -0.720030
H      -2.183325   -0.648905    0.281494
H      -1.122677    1.516230    1.119430
H       0.577384    1.862273    0.772229
H      -0.630717    1.979220   -0.524171
H       0.273485   -1.622703    1.135959
H       0.658872    0.296592   -1.938101
H       2.810995    1.094667   -1.316602
H       2.712454    0.406920    0.326812
H       2.970833   -3.066744   -0.576540
H       2.419889   -1.857403    0.684560
H       1.282358   -2.163859   -2.232003
