21

C       0.031684    1.526423    0.018478
C       0.031582    0.074416    0.012889
C       0.032223   -1.136064    0.008427
C       0.032926   -2.496459    0.003849
C       0.036196   -3.707961   -0.000084
C       0.023903   -5.162915    0.006402
C      -1.395837   -5.783897   -0.055230
C      -2.117830   -5.404967   -1.352654
C      -1.308529   -7.304922    0.114427
H       1.043921    1.923759   -0.118740
H      -0.593958    1.927190   -0.787287
H      -0.353899    1.920602    0.965717
H       0.613641   -5.538210   -0.842702
H       0.533807   -5.522227    0.910524
H      -1.964802   -5.372662    0.788372
H      -1.589563   -5.808840   -2.224996
H      -3.135600   -5.807803   -1.365003
H      -2.178900   -4.319461   -1.469852
H      -0.824816   -7.578447    1.058218
H      -2.305243   -7.757037    0.104985
H      -0.731862   -7.758298   -0.700958
