15

C      -0.116384    1.546222    0.189553
C       0.017999    0.020287   -0.002685
C       0.806590   -0.564704    1.086363
N       1.403938   -1.025400    1.962491
C      -1.350907   -0.651505   -0.121523
C      -1.579362   -2.072928    0.226114
N      -2.152361   -0.994823    1.056924
H       0.864645    2.024218    0.239486
H      -0.668914    1.972180   -0.652282
H      -0.661438    1.773640    1.109189
H       0.567451   -0.166924   -0.935127
H      -1.937106   -0.218427   -0.930372
H      -2.303991   -2.655712   -0.334699
H      -0.744484   -2.640637    0.627205
H      -1.595508   -0.893683    1.904220
