21

C       0.272561    1.657540    0.437599
C       1.368980    0.754124   -0.067704
C       2.282587    0.084338    0.950997
C       1.363282   -0.681994    1.937785
C       1.114930   -0.031928    3.330202
C      -0.387023   -0.063073    3.485942
C      -1.008052   -0.476848    2.382852
C      -0.048503   -0.783966    1.257837
C      -0.037453    0.220566    0.099993
H       0.263275    1.959117    1.480071
H      -0.095224    2.419862   -0.241121
H       1.771090    0.953471   -1.055763
H       2.943100   -0.617292    0.428924
H       2.933456    0.798103    1.469548
H       1.760604   -1.686603    2.101881
H       1.626184   -0.577765    4.132615
H       1.496797    0.997373    3.381746
H      -0.881319    0.246400    4.401230
H      -2.083933   -0.553084    2.264562
H      -0.221741   -1.784072    0.842098
H      -0.666059    0.018036   -0.760518
