19

C      -0.367653    1.344397   -0.072037
N       0.332534    0.071015    0.033876
C       0.686916   -0.675320   -1.012969
N       1.288263   -1.827592   -0.962951
H       1.491260   -2.238528   -0.058037
C       1.572190   -2.716397   -2.120990
C       0.862315   -4.047123   -2.010917
C       1.537440   -5.067773   -3.065519
O       2.721153   -4.779103   -3.332396
O       0.784198   -5.974501   -3.423971
H       0.220661    2.147380    0.381022
H      -0.523212    1.580028   -1.126133
H      -1.343035    1.292662    0.420419
H       0.543513   -0.265008    0.962715
H       0.445765   -0.285804   -1.996922
H       1.288789   -2.160700   -3.019510
H       2.645571   -2.923143   -2.174230
H       1.022531   -4.478276   -1.012487
H      -0.215206   -3.972591   -2.179080
