16

O      -0.663759    0.718496   -0.630680
C       0.344198    0.795217    0.025183
C       1.314989    1.948010   -0.047346
C       0.942039    3.161224   -0.929809
N       1.048532    4.108567    0.230995
C      -0.270243    4.390048    0.880484
C      -0.047676    3.209098    1.845194
O      -0.643270    2.719280    2.755362
C       1.309952    2.942721    1.162557
H       0.618516    0.001194    0.754053
H       2.319523    1.548528   -0.218175
H       1.656075    3.398943   -1.721085
H      -0.060610    3.087955   -1.361770
H      -0.293107    5.364946    1.379942
H      -1.146523    4.308755    0.227832
H       2.193632    2.961053    1.805535
