17

O       0.144356    1.403422    0.092156
C       0.082532    0.032973    0.015276
C      -1.033365   -0.974499    0.078850
C      -0.526505   -1.675499   -1.174693
C       0.833323   -0.907330   -1.023831
O       1.311498   -0.365559   -2.220264
C       1.752015   -1.755128   -0.178365
C       1.276705   -1.787269    1.073441
C       0.095131   -0.889243    1.184836
H      -0.239213    1.763202   -0.716368
H      -2.066038   -0.864838    0.387059
H      -0.476579   -2.768114   -1.199753
H      -1.051311   -1.299473   -2.057219
H       2.135848    0.093159   -2.022966
H       2.554667   -2.352949   -0.593445
H       1.643340   -2.402912    1.885395
H      -0.264470   -0.529089    2.141738
