23

C      -0.250445    1.515755    0.113585
C       0.219976    0.071893   -0.099578
C       0.886798   -0.512957    1.128551
C       0.069346   -1.164098    2.215294
C       0.986882   -2.009419    1.346942
C       0.455931   -3.043002    0.336376
C       1.247963   -4.349729    0.630147
C       2.367981   -3.891992    1.535516
C       2.208629   -2.627935    1.925875
H       0.590905    2.172086    0.362014
H      -0.729854    1.914875   -0.785906
H      -0.970457    1.576411    0.936377
H      -0.636027   -0.551796   -0.384046
H       0.916488    0.037004   -0.948138
H       1.748428    0.058139    1.471730
H       0.343678   -1.001218    3.252682
H      -0.999689   -1.265015    2.048181
H      -0.624484   -3.189182    0.413894
H       0.660776   -2.708177   -0.686095
H       0.624817   -5.101873    1.133470
H       1.613609   -4.825458   -0.287283
H       3.175614   -4.546072    1.844438
H       2.863582   -2.086143    2.600586
