18

C      -0.066872    1.524921    0.026901
C      -0.028925    0.031300   -0.055898
C       0.812115   -0.808305   -1.034388
C      -0.158520   -2.011175   -0.781305
C       0.382732   -2.890113    0.343041
C       0.534958   -1.857864    1.470021
O       1.253583   -1.917356    2.426393
N      -0.337345   -0.744209    1.195080
C      -1.090952   -1.010740   -0.036876
H       0.877213    1.915399    0.422350
H      -0.222514    1.960384   -0.966219
H      -0.872372    1.853409    0.687785
H       0.707909   -0.413052   -2.048174
H       1.875039   -0.956427   -0.814105
H      -0.536222   -2.530645   -1.659942
H      -0.334883   -3.664148    0.642491
H       1.341532   -3.371748    0.138832
H      -2.172740   -0.947636   -0.021997
