20

C      -0.398128    1.557424   -0.022486
C       0.004815    0.089106    0.009870
C       1.043078   -0.480658   -1.022613
C       1.811328   -1.179273    0.144119
C       3.033843   -0.477663    0.783771
C       2.922739    1.015215    0.737679
C       2.096732    0.268505    1.752026
C       0.876179   -0.486071    1.172910
H       0.459819    2.228395    0.067652
H      -0.916327    1.799864   -0.957437
H      -1.081901    1.789620    0.802086
H      -0.907226   -0.516118   -0.049124
H       0.612632   -1.167271   -1.755828
H       1.618884    0.271781   -1.568407
H       1.880269   -2.266009    0.101417
H       3.978979   -0.966406    0.990591
H       3.769769    1.542141    1.167710
H       2.488045    1.531576   -0.110162
H       2.232459    0.462707    2.809905
H       0.354189   -1.072455    1.931154
