18

O      -0.078756    1.374729   -0.048384
C       0.072631   -0.032827   -0.131975
C       0.867769   -0.412533   -1.321217
N       1.519586   -0.695981   -2.232597
C       0.712076   -0.617577    1.127902
C      -0.087634   -0.676836    2.466961
C      -0.878580   -1.891695    1.896585
C       0.606444   -2.133397    1.490084
C       0.978415   -1.708906    2.942353
H       0.795017    1.763968    0.074934
H      -0.939781   -0.417119   -0.278465
H       1.725938   -0.208233    1.224945
H      -0.484570    0.171090    3.024895
H      -1.288606   -2.583067    2.636714
H      -1.608026   -1.708758    1.105918
H       1.013911   -2.969139    0.921033
H       1.992845   -1.334026    3.102450
H       0.670255   -2.390662    3.738265
