23

O      -0.202133    1.502405    0.170709
C       0.011267    0.097759    0.033495
C       0.890159   -0.453943    1.169052
C       1.606382   -1.766080    0.808685
C       0.728928   -3.023821    0.732520
C      -0.491106   -2.951174   -0.197043
O      -1.123441   -4.229209   -0.269454
C      -1.567674   -1.986771    0.314041
C      -1.399034   -0.505892   -0.060812
H       0.654568    1.938653    0.123793
H       0.545693   -0.096817   -0.912139
H       1.657521    0.301442    1.384127
H       0.304151   -0.560833    2.090386
H       2.119302   -1.624958   -0.153288
H       2.397961   -1.952488    1.543437
H       1.364852   -3.859876    0.407356
H       0.362735   -3.287946    1.733091
H      -0.167840   -2.640234   -1.206415
H      -0.450582   -4.880789   -0.491703
H      -2.525635   -2.335013   -0.083786
H      -1.634763   -2.098591    1.402756
H      -2.037374    0.094143    0.597085
H      -1.768689   -0.335938   -1.078019
