13

C       0.415999    1.369958   -0.277067
C      -0.026316   -0.023733    0.130110
O      -0.426704   -0.317236    1.224676
N       0.081149   -0.955271   -0.921080
C      -0.231883   -2.298162   -0.900185
O      -0.660916   -2.955925    0.014805
C       0.033909   -2.954763   -2.264463
O       0.461314   -2.353383   -3.215861
H       1.460680    1.364707   -0.605920
H      -0.192195    1.742389   -1.108292
H       0.307958    2.035184    0.578425
H       0.427351   -0.636940   -1.818670
H      -0.209835   -4.034156   -2.273685
