20

O      -0.355567    1.492366   -1.058988
C      -0.428239    0.077226   -1.144409
C      -1.463859   -0.396554   -0.128846
C      -1.552443   -1.906821   -0.081007
C      -2.735306   -2.725300    0.263607
C      -4.046514   -2.169183   -0.263930
O      -4.505975   -1.006209    0.391426
C      -3.360863   -2.079843   -1.656631
N      -2.121829   -2.767511   -1.143514
H       0.294897    1.798184   -1.697619
H      -0.719213   -0.249532   -2.155684
H       0.547385   -0.387760   -0.925972
H      -1.166277   -0.038448    0.863865
H      -2.429037    0.065587   -0.338819
H      -0.626321   -2.366393    0.265767
H      -2.663346   -3.571002    0.940703
H      -4.821583   -2.945945   -0.265055
H      -5.375703   -0.785095    0.043120
H      -3.831602   -2.697959   -2.423979
H      -3.197054   -1.074574   -2.054038
