22

C       0.057872    1.547061   -0.047917
C       0.005600    0.022249    0.052094
O       0.701192   -0.442212    1.208680
C      -1.421251   -0.525605    0.023971
C      -2.115294   -0.480716   -1.375918
C      -2.145593   -2.021576   -1.387309
C      -1.478624   -2.068002   -0.029712
N      -2.807849   -2.594645   -0.238828
C      -4.000717   -2.022141    0.363447
H       1.094626    1.892449   -0.013040
H      -0.397475    1.905545   -0.976384
H      -0.484614    2.007205    0.787736
H       0.563083   -0.413725   -0.787124
H       0.268076   -0.061662    1.981154
H      -1.989038   -0.070845    0.847562
H      -3.077649    0.034501   -1.449271
H      -1.450908   -0.081388   -2.147143
H      -1.996592   -2.647667   -2.260922
H      -0.707538   -2.724848    0.356872
H      -4.031132   -0.923819    0.401982
H      -4.875045   -2.363704   -0.199554
H      -4.091123   -2.398500    1.387335
