22

C       0.343746    1.317626    0.058249
O      -0.311536    0.205074   -0.522441
C       0.522688   -0.534263   -1.359818
C       1.385102   -1.656042   -0.790054
C       1.340177   -1.985728    0.687824
C       0.202112   -1.981640   -1.679471
N      -0.893824   -2.798269   -1.229327
C      -1.937428   -2.301602   -0.331454
C      -2.220327   -2.516988   -1.776165
H       1.190308    1.009430    0.686244
H       0.715716    2.007286   -0.714196
H      -0.391835    1.839324    0.674916
H       0.946307    0.062405   -2.171547
H       2.364404   -1.783003   -1.245404
H       0.414332   -1.637677    1.150046
H       1.406683   -3.066640    0.847444
H       2.176676   -1.516393    1.216544
H       0.460290   -2.259044   -2.699124
H      -2.279773   -3.028658    0.400800
H      -1.881033   -1.277583    0.013833
H      -2.337844   -1.626210   -2.390058
H      -2.783846   -3.383943   -2.110914
