19

C      -0.009738    1.533783    0.304481
C       1.517498    1.492627   -0.107514
C       1.147973    0.296105   -1.021985
C       0.391945    0.751374   -2.291728
C      -0.747632    0.066140   -2.354426
C      -0.767047   -0.882744   -1.144417
C       0.447019   -1.854399   -1.333938
C       1.589626   -1.155043   -1.257565
C      -0.056201    0.026939   -0.095146
H      -0.239649    1.766270    1.346356
H      -0.578882    2.191093   -0.353724
H       1.932252    2.386174   -0.582147
H       2.153239    1.204587    0.734392
H       0.779855    1.481687   -2.990659
H      -1.508676    0.092207   -3.123363
H      -1.717993   -1.365210   -0.916299
H       0.337233   -2.908080   -1.555988
H       2.598716   -1.521535   -1.393257
H       0.241466   -0.562764    0.775680
