18

O       0.042011    0.057176   -0.053625
C       0.031606    1.258270   -0.005331
C      -1.165637    2.229495    0.031531
N      -0.481285    3.540554    0.085563
C       0.659314    3.372787   -0.917712
C       1.535888    4.594261   -0.647052
C       1.532994    4.531682    0.907975
C       0.655599    3.292543    1.076348
C       1.178545    2.240241    0.036327
H      -1.792926    2.143926   -0.861006
H      -1.796220    2.072578    0.911973
H       0.374252    3.155380   -1.948840
H       2.531294    4.496903   -1.086893
H       1.070774    5.504471   -1.032253
H       2.526773    4.399145    1.342268
H       1.066317    5.408066    1.363339
H       0.366737    2.993027    2.085606
H       2.192033    1.840355    0.022124
