15

O      -0.197591    0.203927   -0.806599
C      -0.007651    1.214287   -0.190486
N       1.202745    1.672634    0.316459
C       2.447641    1.007165    0.279289
O       2.594978   -0.128976   -0.097452
N       3.465191    1.799929    0.772408
C       4.847659    1.339505    0.670101
C       5.645722    2.153797   -0.242552
C       6.293012    2.852369   -0.975056
H      -0.809808    1.942630    0.050797
H       1.156607    2.551865    0.809915
H       3.334837    2.799415    0.794998
H       5.313228    1.332422    1.663479
H       4.796209    0.302635    0.324116
H       6.871653    3.450489   -1.635049
