23

C       0.049509    1.482163   -0.284509
C       0.017726   -0.042497   -0.133762
C      -1.391056   -0.579951    0.098236
C      -2.381830   -0.529069   -1.103918
C      -2.676945   -2.045880   -0.942629
C      -2.103532   -2.948318   -2.036418
O      -0.696782   -2.969411   -1.812975
C      -0.527432   -3.037003   -0.399727
C      -1.604328   -2.126518    0.200613
H       1.066154    1.843616   -0.467423
H      -0.574761    1.810824   -1.122500
H      -0.323918    1.977597    0.618876
H       0.436914   -0.509513   -1.033522
H       0.665282   -0.339531    0.702372
H      -1.819213   -0.086153    0.977963
H      -3.243842    0.130063   -0.977368
H      -1.899638   -0.284673   -2.056195
H      -3.705114   -2.298626   -0.679090
H      -2.520413   -3.966573   -1.957744
H      -2.274030   -2.579831   -3.052403
H      -0.674617   -4.071071   -0.046161
H       0.500014   -2.740729   -0.174176
H      -1.934241   -2.480309    1.179337
