18

C       0.003931    1.512382    0.012401
C      -0.037853    0.020428    0.005005
C      -1.087992   -0.809893    0.118755
C      -0.710220   -2.242306    0.062618
C      -1.505608   -3.272898    0.788878
N      -1.547311   -3.212989   -0.676803
C       0.800202   -2.272468   -0.121810
C       1.204208   -0.790572   -0.134107
O       2.328198   -0.353276   -0.227847
H       0.663843    1.873201    0.808807
H       0.424280    1.890156   -0.926189
H      -0.988365    1.948139    0.152055
H      -2.123945   -0.501736    0.235433
H      -0.996298   -4.142124    1.196681
H      -2.373508   -2.947398    1.357903
H      -2.409102   -2.767778   -0.986563
H       1.330111   -2.793666    0.680818
H       1.079189   -2.749953   -1.065028
