18

C       0.021181   -1.204250    0.072780
C      -0.019817   -0.002400    0.038824
C      -0.103047    1.426192   -0.006685
C      -1.121083    2.262371    0.781934
C      -0.649254    3.397850   -0.158807
C       0.804041    3.539534    0.333722
N       1.294619    2.175083   -0.036017
C       1.112474    2.255431   -1.539473
C      -0.385282    2.299750   -1.280732
H       0.065540   -2.264505    0.107920
H      -2.129563    1.907541    0.554153
H      -0.996959    2.386026    1.861565
H      -1.252073    4.285543   -0.340921
H       1.399248    4.300012   -0.177645
H       0.874887    3.705736    1.411761
H       1.623073    3.096927   -2.017014
H       1.427041    1.315960   -2.000512
H      -1.175748    2.081034   -1.998437
