18

C       0.304189    1.501174   -0.048540
N       0.006051    0.070602    0.030345
C      -0.266793   -0.562175   -1.191938
C      -0.283105   -1.853179   -1.535893
C       0.052844   -3.057932   -0.712798
O       0.528807   -2.770396    0.581570
C      -0.361822   -1.999276    1.360698
C      -0.075536   -0.499707    1.289913
O       0.069123    0.151555    2.307411
H       1.214958    1.670778   -0.631301
H      -0.523888    2.039312   -0.523417
H       0.441884    1.871681    0.964813
H      -0.514644    0.164863   -1.959966
H      -0.577746   -2.067107   -2.559705
H      -0.824494   -3.730028   -0.662499
H       0.852377   -3.629668   -1.200751
H      -1.409777   -2.191939    1.083136
H      -0.222815   -2.277479    2.406986
