16

O      -0.205491    1.532035    0.312226
C       0.074327    0.171277    0.014269
C      -1.255124   -0.554932   -0.138268
N      -2.007699   -0.132381   -1.302539
C      -2.597179    1.111496   -1.541399
C      -3.215039    1.020114   -2.723813
O      -3.039854   -0.245244   -3.247056
C      -2.282636   -0.978470   -2.358311
O      -1.954861   -2.126111   -2.518077
H       0.612743    2.033482    0.255469
H       0.654501    0.071389   -0.914072
H       0.643719   -0.307102    0.826105
H      -1.083681   -1.627122   -0.260479
H      -1.853689   -0.396605    0.766449
H      -2.486869    1.928874   -0.852197
H      -3.787079    1.714349   -3.312611
