20

O       0.126601    1.344790    0.170329
C       0.046116   -0.051479   -0.055561
C      -1.396746   -0.576791    0.017459
C      -1.520330   -2.096441    0.008069
C      -1.200812   -2.827891    1.263615
N      -2.601952   -2.538568    0.911858
C      -3.131567   -1.321809    1.550958
C      -2.161937   -0.145843    1.293600
O      -1.213852    0.054320    2.354574
H      -0.082674    1.460089    1.105287
H       0.448717   -0.230615   -1.058094
H       0.673688   -0.607173    0.653554
H      -1.949598   -0.176616   -0.840764
H      -1.452806   -2.609764   -0.947145
H      -0.940601   -3.881650    1.219080
H      -0.745960   -2.271522    2.077017
H      -4.102841   -1.105452    1.090954
H      -3.301083   -1.487415    2.621308
H      -2.708462    0.789863    1.125282
H      -1.703442    0.284622    3.150443
