19

C      -0.664661   -0.961066   -0.906591
C      -0.364501    0.097306   -0.422210
C      -0.016531    1.378905    0.166953
C      -0.253886    1.479777    1.697033
C       0.660086    2.639600    2.179556
C       1.525978    3.042792    0.958969
C       1.473940    1.822859    0.005516
C       2.418000    0.782556    0.397960
C       3.205433   -0.058244    0.741947
H      -0.921793   -1.898355   -1.333763
H      -0.612509    2.158726   -0.326416
H      -1.310439    1.641506    1.922223
H       0.037700    0.536147    2.164056
H       0.081624    3.491312    2.546819
H       1.290790    2.304814    3.006653
H       1.083644    3.901711    0.442885
H       2.549050    3.311225    1.228283
H       1.674373    2.113234   -1.031095
H       3.897581   -0.809780    1.030880
