19

C      -0.276358    1.528833    0.005796
C      -0.096550    0.047566   -0.059133
C      -0.123774   -0.770467   -1.124038
C       0.112133   -2.213791   -0.785260
C       1.569771   -2.740583   -1.027574
C       1.854264   -2.623305    0.494398
C       0.365647   -2.198262    0.745186
C       0.179115   -0.747285    1.172799
O       0.272499   -0.303151    2.296305
H       0.605689    2.004215    0.448920
H      -0.452167    1.963161   -0.981431
H      -1.118838    1.784492    0.657710
H      -0.271732   -0.440255   -2.148905
H      -0.676975   -2.866890   -1.168046
H       1.595842   -3.767754   -1.398070
H       2.186901   -2.121303   -1.682515
H       2.133044   -3.560056    0.979716
H       2.586094   -1.863382    0.776819
H      -0.204789   -2.882435    1.373810
