19

C       0.034910    1.559614    0.106916
C      -0.045870    0.024992   -0.009058
C      -1.501653   -0.469935    0.038810
O      -2.040342   -0.089025    1.293897
C       0.611223   -0.462674   -1.220166
C       1.137427   -0.838691   -2.236721
C       1.767425   -1.358815   -3.441897
C       1.798468   -2.888667   -3.463427
O       1.611089   -3.546206   -4.450290
H       1.075363    1.891098    0.149589
H      -0.437674    2.034840   -0.758562
H      -0.482235    1.886336    1.011071
H       0.459015   -0.411716    0.863609
H      -2.062269   -0.023711   -0.797218
H      -1.517717   -1.561714   -0.092331
H      -2.967639   -0.341320    1.314763
H       1.274254   -1.014804   -4.356963
H       2.814508   -1.022242   -3.497994
H       2.023935   -3.352659   -2.478539
