18

C      -0.250753    1.573308    0.199329
C      -0.102112    0.061580    0.086607
C       0.450212   -0.602472   -1.208361
C       0.970093    0.274802   -2.339842
C       1.742191   -0.531684   -3.367999
O       1.492055   -0.543190   -4.545324
O       1.551473   -1.187877   -0.431312
C       1.118112   -0.572139    0.728336
N       1.609036   -0.562070    1.880271
H       0.654341    2.100788   -0.113093
H      -1.088067    1.934162   -0.405670
H      -0.443053    1.841152    1.241676
H      -1.020951   -0.429626    0.420355
H      -0.182623   -1.404612   -1.600403
H       0.142769    0.783593   -2.843381
H       1.649895    1.030449   -1.925945
H       2.579917   -1.128639   -2.947449
H       2.466405   -1.114751    1.931024
