18

C      -0.144832    1.607587   -0.068031
C      -0.064469    0.118822    0.056529
C      -0.088725   -1.007298   -0.901617
N       1.382284   -1.474885   -0.665413
C       1.050064   -0.832836    0.621034
N       0.770783   -1.615054    1.587681
C      -0.698389   -1.499056    1.735591
C      -1.101791   -0.914742    0.354363
N      -2.456666   -0.688820   -0.044374
H       0.707096    2.013507   -0.624645
H      -1.059600    1.887884   -0.600351
H      -0.159956    2.092592    0.914238
H      -0.496532   -1.070220   -1.905456
H       1.904477   -0.823786   -1.263639
H      -1.071725   -2.511765    1.928453
H      -1.063101   -0.849854    2.548410
H      -2.976230   -1.560732   -0.080703
H      -2.932884   -0.081705    0.616763
