19

C       0.071321    1.478524   -0.017484
C       0.015993    0.026305    0.075582
C      -0.018015   -1.174686    0.156562
C      -0.092123   -2.628498    0.239109
C      -1.442058   -3.181039   -0.250603
N      -1.447045   -4.635925   -0.170454
C      -1.922075   -5.211606    1.085022
C      -2.756990   -5.274786   -0.145899
H       0.882683    1.806054   -0.677149
H      -0.863243    1.888443   -0.416681
H       0.238884    1.936143    0.963993
H       0.706446   -3.089398   -0.354613
H       0.070873   -2.955052    1.274636
H      -2.259296   -2.723572    0.334861
H      -1.593762   -2.894384   -1.296801
H      -1.388180   -6.089108    1.437952
H      -2.247147   -4.528496    1.868964
H      -3.637545   -4.634776   -0.180356
H      -2.843649   -6.198933   -0.710198
