18

C      -0.053975    1.530378    0.032832
C       0.119714    0.035166    0.010232
N      -0.776761   -0.848400    0.789938
C       0.658944   -0.772756    1.134759
C       1.447754   -1.978357    0.594125
O       0.906058   -3.216774    0.992837
C       1.437424   -1.788965   -0.933261
O       0.131795   -1.955812   -1.498583
C       0.606084   -0.627362   -1.278674
H       0.840416    2.037597   -0.345896
H      -0.900816    1.840108   -0.590246
H      -0.232844    1.889433    1.051338
H      -1.308504   -0.283403    1.449348
H       0.946654   -0.329150    2.083168
H       2.478330   -1.950249    0.963518
H      -0.020451   -3.179863    0.716648
H       2.259599   -2.159527   -1.541104
H       0.749230   -0.021968   -2.170637
