16

C      -0.315424    1.422436    0.043100
C       0.013562   -0.057388   -0.033956
N       1.220574   -0.416984   -0.811909
C       1.980986   -0.774511    0.278842
N       3.179443   -1.022016    0.585315
C       0.765170   -0.658461    1.220688
O       0.957116    0.233474    2.281300
C       0.212113   -1.941144    1.676311
N      -0.235167   -2.945940    2.030565
H       0.538697    1.999329    0.403415
H      -0.606783    1.793163   -0.945255
H      -1.153401    1.588581    0.725949
H      -0.859979   -0.642736   -0.334471
H       1.533889   -0.019838   -1.686121
H       3.823055   -0.935737   -0.201484
H       1.864356    0.102120    2.589505
