20

C      -0.190993    1.633418   -0.105429
C      -0.000534    0.123058   -0.003916
C       0.993052   -0.586876   -1.037313
C       1.918107   -0.847987    0.169013
C       2.622357   -1.754557    1.228295
C       2.109821   -0.447579    1.991083
C       2.685141    0.356385    0.813330
C       0.782675   -0.627495    1.168997
H       0.743671    2.185965   -0.221963
H      -0.815077    1.872702   -0.974510
H      -0.701237    2.020035    0.783297
H      -0.995077   -0.329714   -0.056524
H       0.546600   -1.487649   -1.467764
H       1.400307    0.029374   -1.845124
H       2.116912   -2.691958    1.475465
H       3.709157   -1.882565    1.179091
H       2.244184   -0.246551    3.058494
H       3.772466    0.345413    0.691210
H       2.290083    1.358649    0.663710
H       0.220534   -1.523285    1.451425
