17

C       1.013002    1.654501   -1.764220
O       1.159006    0.246005   -1.961180
C       0.585738   -0.529642   -1.043530
N      -0.054656   -0.062983   -0.048578
N       0.777270   -1.889875   -1.313557
C       1.451585   -2.505111   -2.357443
O       2.029210   -1.991317   -3.275403
O       1.345720   -3.845697   -2.160784
C       1.992282   -4.643324   -3.157213
H      -0.042615    1.937273   -1.764930
H       1.456034    1.959456   -0.812875
H       1.537844    2.115704   -2.600992
H      -0.425661   -0.795467    0.550484
H       0.363388   -2.524254   -0.649682
H       1.565441   -4.450875   -4.144689
H       3.063664   -4.430082   -3.189164
H       1.818905   -5.678550   -2.862798
