22

C       0.346074    1.323103    0.244284
C      -0.088683   -0.130722   -0.011312
C      -1.613815   -0.218020   -0.107822
C       0.619548   -0.700708   -1.267757
C       2.025701   -1.100175   -0.788220
N       1.847003   -1.319205    0.650228
C       0.479555   -1.058240    1.087800
C       2.889125   -1.623697    1.458350
O       4.030066   -1.797608    1.075886
H       1.430580    1.407875    0.363330
H       0.047764    1.969630   -0.587620
H      -0.119960    1.715020    1.154826
H      -1.988793    0.402622   -0.928462
H      -1.943637   -1.246759   -0.287858
H      -2.091224    0.132661    0.813927
H       0.078813   -1.585267   -1.622079
H       0.650244    0.016048   -2.092526
H       2.404547   -2.002919   -1.276943
H       2.770448   -0.313623   -0.951956
H       0.467930   -0.599177    2.081297
H      -0.106686   -1.987554    1.139739
H       2.588846   -1.697017    2.523535
