16

C       0.085704    1.524108    0.111702
C       0.009675    0.032688   -0.029619
C       0.594814   -0.781261   -1.231027
C       0.599929   -1.825191   -0.069345
O       0.937162   -0.731643    0.837384
C      -0.917301   -2.001603    0.193414
C      -1.312461   -0.730994    0.223112
C       1.475880   -2.978058   -0.031116
N       2.158082   -3.910238   -0.029548
H       1.100834    1.880749   -0.078910
H      -0.593332    2.007183   -0.598013
H      -0.203428    1.826343    1.122824
H      -0.036519   -0.979113   -2.098029
H       1.602011   -0.461241   -1.506018
H      -1.445516   -2.935161    0.309974
H      -2.290780   -0.298566    0.373554
