20

C       0.084819    1.582537   -0.001695
C      -0.158433    0.069484    0.055100
C       0.623606   -0.588796    1.180238
C       0.918675   -2.096261    1.236309
C       2.020833   -1.872463    0.151262
C       3.218409   -2.735340    0.487781
C       3.291352   -2.640920    1.815930
C       2.129816   -1.731675    2.151364
N       2.160674   -0.607726    1.066383
H       1.146600    1.795551   -0.155272
H      -0.481970    2.046056   -0.814762
H      -0.217247    2.065387    0.934288
H      -1.225494   -0.130951    0.219587
H       0.087629   -0.379736   -0.912781
H       0.319519   -0.147984    2.138989
H       0.228660   -2.945632    1.333887
H       1.772814   -1.685105   -0.891524
H       3.852503   -3.258176   -0.213609
H       4.000239   -3.064042    2.512774
H       1.971841   -1.385159    3.173668
