16

O       0.115834    1.497474   -0.106970
C       0.046121    0.100148   -0.034717
C       0.009342   -0.591824    1.367084
C      -1.440975   -0.143701    1.650552
C      -2.023245   -1.572527    1.676937
C      -3.184278   -1.574038    0.668418
C      -2.745877   -0.849632   -0.371662
C      -1.368912   -0.461320    0.117691
N      -0.789768   -1.759569    0.754648
H       1.042791    1.755050   -0.103060
H       0.672633   -0.404844   -0.782167
H       0.830983   -0.766707    2.062250
H      -1.807539    0.770378    2.126590
H      -2.098882   -2.199034    2.567389
H      -4.127847   -2.088967    0.783404
H      -3.222808   -0.609913   -1.309458
