18

N      -0.043990    1.316998   -0.005764
C      -0.038830    0.054600   -0.022221
C      -1.263269   -0.833378   -0.044637
C      -0.713725   -2.209522   -0.452039
C      -0.675508   -2.481322   -1.939291
C       0.550930   -2.758117   -2.377677
C       1.572286   -2.738888   -1.265739
C       0.795435   -2.122918   -0.086959
O       1.089888   -0.714874   -0.003896
H       0.911647    1.676631    0.027955
H      -1.701920   -0.857411    0.958760
H      -2.019473   -0.434495   -0.722308
H      -1.224612   -3.017051    0.083609
H      -1.571901   -2.454459   -2.549202
H       0.810187   -2.994021   -3.403658
H       1.923045   -3.751383   -1.025926
H       2.460330   -2.140361   -1.493784
H       1.047540   -2.573239    0.877529
