15

N      -0.096170   -1.194530   -0.075931
C      -0.046979   -0.040218   -0.038448
C      -0.009250    1.411604    0.009786
C       0.080637    2.124176    1.403904
C       1.552025    1.625590    1.510245
C       1.386185    2.141282    0.043920
C       0.623700    3.366345    0.641953
C       2.370855    2.154454   -1.007882
N       3.160791    2.174425   -1.851684
H      -0.729586    1.836400   -0.693039
H      -0.685208    2.100497    2.175506
H       2.219283    2.213638    2.141844
H       1.711141    0.553749    1.631738
H      -0.063893    3.884638   -0.029441
H       1.233959    4.061411    1.219657
