23

C      -0.859878    1.320839    0.040001
C      -0.110326   -0.018017    0.032287
C       0.725696   -0.271585   -1.207082
C       1.929654   -0.792480   -0.951269
C       2.971817   -1.195619   -1.948227
C       2.147072   -0.972736    0.535652
C       3.113792    0.046826    1.206137
C       1.893274    0.956718    1.518303
C       0.929006   -0.218861    1.159736
H      -0.179251    2.170626   -0.068407
H      -1.576571    1.366548   -0.787049
H      -1.420684    1.453656    0.971423
H      -0.873552   -0.808937    0.111463
H       0.348511   -0.066559   -2.205571
H       2.659380   -0.977531   -2.973218
H       3.921967   -0.678275   -1.765063
H       3.187466   -2.270076   -1.880285
H       2.311737   -2.024713    0.798127
H       3.577666   -0.359442    2.109299
H       3.901684    0.472197    0.577643
H       1.823930    1.344249    2.537414
H       1.814460    1.799761    0.828819
H       0.501094   -0.683855    2.050611
