20

C      -0.036658    1.535474    0.086543
C       0.034661    0.043251    0.017505
C      -0.027666   -0.721367   -1.074756
C       0.022578   -2.198355   -0.759016
C       0.975295   -3.014624   -1.663861
C       0.550419   -3.034016   -3.062149
N       0.195835   -3.035620   -4.162280
C       0.464846   -2.215738    0.728463
C       0.136311   -0.804896    1.269918
H       0.856743    1.951737    0.569179
H      -0.129340    1.983480   -0.906148
H      -0.893926    1.861770    0.689391
H      -0.148458   -0.352635   -2.088065
H      -0.979321   -2.637971   -0.868377
H       1.986682   -2.594773   -1.611843
H       1.037971   -4.049470   -1.307319
H      -0.009449   -3.018410    1.298940
H       1.547377   -2.380829    0.778171
H       0.894014   -0.435438    1.971138
H      -0.817334   -0.788645    1.816927
