17

C      -0.063784    1.516752    0.100306
C      -0.056008    0.032414   -0.058175
C       0.117906   -0.767934   -1.168014
N       0.450268   -0.771886   -2.525167
C       0.164148   -2.152205   -2.998984
C       0.298963   -3.027523   -1.721940
N       0.007813   -2.029431   -0.709299
N      -0.188223   -2.067003    0.627211
N      -0.245419   -0.818453    1.004679
H       0.852414    1.975890   -0.287957
H      -0.910163    1.988315   -0.413665
H      -0.141925    1.758475    1.162607
H       0.011907   -0.048189   -3.078958
H      -0.855972   -2.234639   -3.396950
H       0.867032   -2.449158   -3.780213
H      -0.409276   -3.857181   -1.697141
H       1.313939   -3.419930   -1.594994
