19

C       0.052209    1.481763    0.092321
C       0.028953   -0.006574   -0.059864
C       0.729209   -0.927009   -1.090340
C       0.107972   -1.804851    0.017421
O       0.627679   -0.832589    1.014720
C      -1.220186   -1.001344   -0.041016
C      -2.094540   -0.960296    1.209088
C      -2.086839   -1.082581   -1.271232
O      -1.977985   -1.886438   -2.164636
H       1.083666    1.831279    0.198964
H      -0.386207    1.962359   -0.787719
H      -0.511423    1.792111    0.977318
H       0.331333   -1.002829   -2.101137
H       1.817593   -0.873744   -1.055792
H       0.253510   -2.863485    0.228040
H      -1.466940   -0.836373    2.092108
H      -2.810059   -0.131551    1.162505
H      -2.670960   -1.885762    1.314794
H      -2.900572   -0.318929   -1.292820
