12

C       0.032156    1.361699   -0.002952
O      -0.016095   -0.074330   -0.070758
C       0.578743   -0.648045   -1.091110
N       0.633362   -1.930384   -1.309646
C       1.352564   -1.956291   -2.475526
O       1.658828   -3.098372   -3.086746
N       1.730860   -0.803195   -2.970378
O       1.190535    0.104271   -2.004273
H       1.066515    1.708706    0.059340
H      -0.450053    1.803931   -0.878224
H      -0.511573    1.624059    0.903207
H       1.285083   -3.811646   -2.554649
