21

C       0.432803    1.328162   -0.057112
O       0.452343   -0.077333   -0.042699
C       0.495984   -0.607045    1.269556
C       0.479010   -2.109925    1.168581
C       1.763654   -2.878630    0.978913
C       1.007698   -2.996645    2.276756
C       1.573686   -2.451357    3.552302
C       2.920471   -2.810534    4.021111
O       2.655361   -1.520774    3.463199
H       1.332107    1.757083    0.413827
H       0.397323    1.645988   -1.102309
H      -0.449196    1.732874    0.466302
H       1.397350   -0.261954    1.796591
H      -0.377013   -0.250415    1.845329
H      -0.390240   -2.491638    0.640073
H       1.774411   -3.724324    0.301001
H       2.681104   -2.300615    1.006958
H       0.447673   -3.915267    2.436960
H       0.837042   -2.187430    4.313815
H       3.143790   -2.818334    5.086762
H       3.536584   -3.462896    3.404825
