18

C      -1.166806    1.200850   -0.199472
N      -0.292560    0.036928   -0.014555
C      -0.127124   -0.388156    1.358794
N       0.673006   -1.455664    1.544422
O      -0.692728    0.209527    2.252875
C       0.301758   -0.567344   -1.105872
O       1.042314   -1.540041   -1.034942
C      -0.002290    0.039158   -2.488434
N       0.650373   -0.635031   -3.594144
H      -0.625948    2.035713   -0.653213
H      -2.029908    0.953971   -0.823487
H      -1.512245    1.493835    0.788857
H       1.112649   -1.904675    0.750880
H       0.795980   -1.760366    2.493977
H      -1.086809    0.032299   -2.650135
H       0.288985    1.096218   -2.486697
H       1.653500   -0.638826   -3.428985
H       0.390702   -1.617806   -3.577265
