18

C       0.001719    1.591669    0.046685
C       0.012059    0.061241    0.020686
C      -1.420970   -0.523417    0.055747
C      -2.159916   -0.183926    1.265296
C      -2.751939    0.097001    2.273205
C       0.749808   -0.487007   -1.225014
C       2.156963   -0.111494   -1.281691
C       3.318117    0.198845   -1.308200
H       1.020943    1.986040    0.038010
H      -0.522332    1.991757   -0.830222
H      -0.508292    1.960376    0.940198
H       0.542155   -0.302014    0.908828
H      -1.975884   -0.167150   -0.823621
H      -1.370586   -1.616243   -0.037892
H      -3.283290    0.341659    3.159254
H       0.670723   -1.582006   -1.242237
H       0.239541   -0.130014   -2.130734
H       4.344225    0.469564   -1.341170
