15

O      -0.071053   -0.113299   -0.076292
C      -0.065221    1.093057   -0.026779
C       1.245023    1.902677    0.025590
C       2.448230    1.081525    0.009754
N       3.415748    0.451971   -0.001698
C      -1.303560    1.915298   -0.011309
C      -2.498661    1.383300   -0.795107
C      -2.520773    1.322116    0.690155
H       1.261010    2.599324   -0.822144
H       1.235291    2.527922    0.927359
H      -1.173704    2.990782    0.034893
H      -3.114545    2.116332   -1.302660
H      -2.327539    0.457794   -1.332318
H      -2.364534    0.355354    1.154271
H      -3.152404    2.011623    1.237770
