27

C       0.159192    1.633374   -0.017045
C       0.013237    0.108542   -0.006108
C       0.630324   -0.552945   -1.244398
C       0.606506   -2.094102   -1.254706
C      -0.827292   -2.647073   -1.281572
C       1.448963   -2.617114   -2.432634
C       1.661848   -4.126320   -2.449703
O       2.565664   -4.432803   -3.491632
C       2.808207   -5.811486   -3.617241
H       1.213319    1.930675   -0.050224
H      -0.333348    2.071545   -0.892380
H      -0.286184    2.084542    0.875252
H       0.490149   -0.297844    0.896159
H      -1.049845   -0.148195    0.069664
H       0.122512   -0.180633   -2.146283
H       1.674099   -0.221582   -1.330664
H       1.084098   -2.437213   -0.323878
H      -1.416114   -2.282160   -0.435527
H      -1.342672   -2.345100   -2.201716
H      -0.843218   -3.739858   -1.236287
H       0.988349   -2.315954   -3.382573
H       2.439743   -2.148061   -2.407185
H       2.066948   -4.467772   -1.479762
H       0.712790   -4.664619   -2.607335
H       3.251593   -6.236176   -2.701773
H       1.885640   -6.372450   -3.838907
H       3.510193   -5.948509   -4.443754
