20

C      -0.122230    1.526774    0.138180
C      -0.095248    0.014210    0.122596
C      -1.314378   -0.651216   -0.477236
O       1.167060   -0.561220   -0.285953
C       0.764880   -0.722706    1.063932
C       1.552218   -0.206761    2.274961
C       1.001290   -1.421996    3.079575
C       0.529040   -2.075919    1.746502
H       0.801861    1.933032    0.554214
H      -0.236501    1.915430   -0.879833
H      -0.966242    1.895464    0.731875
H      -1.460639   -0.316615   -1.510248
H      -1.206285   -1.737644   -0.485059
H      -2.217137   -0.392402    0.087397
H       2.630689   -0.270444    2.101855
H       1.316083    0.793528    2.646263
H       1.726741   -1.985579    3.668380
H       0.165303   -1.147420    3.727004
H      -0.481637   -2.490535    1.717754
H       1.228391   -2.832181    1.377589
