17

N       0.207652    1.237344    0.428294
C       0.016901   -0.095502   -0.123922
C      -1.477451   -0.467299   -0.171924
C      -1.706522   -1.970511   -0.013425
N      -0.965268   -2.887340   -0.850509
C      -0.053017   -2.644248   -1.671704
O       0.558860   -1.481650   -2.125363
C       0.608467   -0.245251   -1.525124
O       1.114179    0.650216   -2.137580
H       1.195854    1.474628    0.389226
H      -0.238180    1.913087   -0.188744
H       0.530613   -0.811996    0.532139
H      -1.973211    0.052765    0.653174
H      -1.928709   -0.099567   -1.101637
H      -1.485133   -2.258540    1.023368
H      -2.768990   -2.201214   -0.156211
H       0.398119   -3.460056   -2.233536
