17

C       0.012399    0.800036   -1.373242
C      -0.026248    0.027647   -0.076018
C       1.199354   -0.482076    0.554128
O       0.542999    0.687718    1.056016
C      -1.329022   -0.696513    0.200370
C      -1.933792   -0.640655    1.545988
O      -2.441534    0.170708    0.488857
C      -1.609429   -1.810652   -0.674912
C      -1.803282   -2.735549   -1.417864
H       0.978694    1.294898   -1.492926
H      -0.155480    0.132885   -2.223844
H      -0.774522    1.560105   -1.374498
H       1.153405   -1.356468    1.201532
H       2.159749   -0.308029    0.071692
H      -2.582301   -1.455276    1.862706
H      -1.394746   -0.108170    2.324899
H      -1.988656   -3.553079   -2.070356
