20

C      -0.121830    1.513182    0.020281
C       0.014185    0.011062    0.055832
C       1.148045   -0.780393   -0.690749
C       2.147853   -0.409959    0.421724
C       0.838589   -0.745300    1.171624
C       0.619692   -1.959073    0.215684
C      -0.861104   -2.086854   -0.079062
C      -1.817921   -1.453608    0.866649
N      -1.264407   -0.679272   -0.261473
H       0.830326    2.018313    0.201933
H      -0.507308    1.834655   -0.951930
H      -0.832798    1.847967    0.783407
H       1.312788   -0.812212   -1.769298
H       2.977467   -1.105094    0.575464
H       2.501316    0.622772    0.462189
H       0.681163   -0.722330    2.251077
H       1.228837   -2.855031    0.338194
H      -1.203600   -2.806567   -0.817760
H      -2.878268   -1.673376    0.777807
H      -1.488991   -1.222420    1.875463
