22

C       0.004091    1.644821    0.022856
C      -0.001354    0.105185    0.002666
C       0.670709   -0.455507   -1.164752
C       1.241392   -0.897783   -2.130271
C       1.889027   -1.418431   -3.302491
N       3.192219   -2.121062   -3.131865
C       2.025798   -2.885891   -3.596963
C       1.504585   -3.905899   -2.608309
C       1.978591   -3.315871   -5.049243
H       1.027649    2.029093    0.028604
H      -0.501671    2.046766   -0.859319
H      -0.509914    2.016651    0.914350
H       0.480931   -0.273872    0.912943
H      -1.037083   -0.257429    0.038997
H       1.796492   -0.782314   -4.181591
H       3.795812   -1.886606   -3.917689
H       1.571758   -3.524490   -1.588426
H       0.458329   -4.152250   -2.820137
H       2.089862   -4.830049   -2.671679
H       2.611171   -4.196822   -5.210674
H       0.959538   -3.582038   -5.350382
H       2.329334   -2.520273   -5.714969
