19

C       0.065026    1.508039   -0.102220
C       0.072222   -0.008242   -0.107778
C       1.412301   -0.725355   -0.264025
C       0.735335   -0.734474    1.062266
C      -1.087081   -0.749011   -0.706111
O      -1.127345   -1.963507   -0.727519
C      -2.231042    0.068935   -1.302570
C      -3.333899   -0.804271   -1.871064
O      -3.818149   -0.637849   -2.959884
H       0.978175    1.887149    0.365283
H       0.022191    1.923308   -1.114780
H      -0.780608    1.914045    0.463745
H       1.397828   -1.644022   -0.838283
H       2.282901   -0.094463   -0.405442
H       1.127727   -0.109709    1.857045
H       0.266476   -1.659310    1.376328
H      -2.660313    0.703363   -0.512668
H      -1.866962    0.747315   -2.080888
H      -3.682116   -1.610529   -1.194890
