12

O      -0.054907    1.308794    0.009625
C       1.245109    1.772432   -0.000121
C       2.127718    0.752004   -0.014237
N       1.359408   -0.409822   -0.013394
C       1.358749   -1.796718   -0.021010
C       0.023640   -2.130989   -0.009929
N      -0.809807   -1.021426    0.003961
C       0.043142   -0.039567    0.001227
H       1.368872    2.840566    0.004634
H       3.203288    0.761431   -0.024471
H       2.260753   -2.382408   -0.032925
H      -0.393441   -3.126554   -0.011333
