20

C      -0.007151    1.516792   -0.145637
C       0.022987    0.021358    0.064880
N       1.338254   -0.649985   -0.025963
C       0.605343   -0.638887    1.256610
C       1.292487    0.082680    2.417555
C       1.901541   -1.061384    3.246847
C       0.984094   -2.266119    3.008524
O       0.988064   -3.295972    3.630002
C       0.049649   -1.930704    1.835688
H       0.860905    1.997908    0.310192
H       0.002562    1.753550   -1.214798
H      -0.913922    1.953414    0.287275
H      -0.816940   -0.506699   -0.387965
H       1.240207   -1.553074   -0.484472
H       2.036303    0.796736    2.063326
H       0.549428    0.629467    3.011099
H       2.893047   -1.333766    2.862517
H       2.014430   -0.859130    4.314230
H      -0.956660   -1.781428    2.251323
H      -0.017606   -2.761985    1.127951
