13

O       0.434381    0.288762    0.980880
C      -0.129852    0.273528   -0.309084
C      -1.503930   -0.447151   -0.377844
O      -2.010169   -0.356981   -1.676669
C      -1.376760   -1.906290    0.029006
O      -1.535667   -2.798231   -0.773146
C      -1.083267   -2.201903    1.434517
N      -0.916706   -2.455333    2.550262
H      -0.064824    0.896213    1.536412
H      -0.278750    1.277302   -0.727668
H       0.574106   -0.254719   -0.959491
H      -2.188092    0.040216    0.336885
H      -2.029057   -1.259718   -2.030529
