19

O       0.526146   -0.432542   -1.244030
C      -0.056389    0.120748   -0.067531
C      -1.449297   -0.393036    0.291428
C      -2.283536   -1.252995   -0.625529
O      -1.770879   -1.721644   -1.834112
C      -1.766090   -1.835032    0.675907
C      -0.678761   -2.911444    0.718617
C      -0.196499   -3.456301   -0.613663
O       0.889251   -3.195695   -1.086638
H       0.947911   -1.283869   -1.036841
H       0.621897    0.001177    0.790170
H      -0.135751    1.196463   -0.257640
H      -2.004094    0.349597    0.860377
H      -3.349979   -1.047494   -0.686121
H      -0.961459   -1.212606   -2.016843
H      -2.498083   -1.938277    1.471168
H       0.205001   -2.555677    1.261645
H      -1.079614   -3.769089    1.273020
H      -0.866566   -4.183740   -1.108809
