13

C      -0.043266    1.440646    0.078659
N      -0.030650   -0.007408    0.175583
C      -1.102417   -0.660208    0.066758
O      -2.362642   -0.119047   -0.147060
C      -3.289403   -1.159159   -0.209938
O      -4.453019   -0.960766   -0.387579
C      -2.537977   -2.422590   -0.020735
C      -1.246270   -2.118360    0.142065
H       0.627238    1.739025   -0.734954
H      -1.032914    1.875930   -0.090179
H       0.381395    1.853181    1.000622
H      -3.024188   -3.386276   -0.026291
H      -0.400847   -2.770559    0.304478
