19

N       0.738410    0.057968    1.604095
C       0.384383    0.709452    0.716874
C      -0.026535    1.532541   -0.443271
N       0.975352    2.450515   -0.960146
C       1.343910    3.522530   -0.067492
C       2.300468    3.463791    1.100679
C       3.478778    2.525637    0.811927
C       3.814593    3.355322   -0.469098
C       2.626026    4.280535   -0.174859
H      -0.337430    0.851529   -1.242821
H      -0.915807    2.104722   -0.154879
H       1.786398    1.945373   -1.295195
H       0.490390    4.170235    0.127233
H       2.013212    3.818848    2.083480
H       4.267566    2.599191    1.562559
H       3.230292    1.468173    0.683287
H       4.771353    3.873497   -0.380226
H       3.808820    2.833833   -1.433711
H       2.632794    5.354249   -0.323931
