18

O       0.038477    0.141805    0.391174
C      -0.037186    1.285240    0.077007
O      -1.141135    1.976979   -0.342516
C      -0.387908    3.232580   -0.430962
C       0.903607    2.499949   -0.014585
N       1.491249    2.876637    1.239361
C       2.470353    3.987128    1.267656
C       3.275031    3.203138    2.331355
C       2.482105    1.961049    1.858385
H      -0.425045    3.632958   -1.445477
H      -0.755604    3.954504    0.299662
H       1.634930    2.395802   -0.837625
H       3.025888    4.090305    0.320470
H       2.053543    4.961872    1.540197
H       4.358303    3.176887    2.215302
H       3.023905    3.499986    3.350877
H       2.067752    1.282595    2.607918
H       3.040774    1.369593    1.116897
