18

C       0.050476    1.410266   -0.013496
C       1.375201    0.702010   -0.028799
C       1.742542    0.135986    1.356956
C       0.402694   -0.672895    1.365422
C       0.060071   -0.091938   -0.020472
C       0.000479   -0.789053   -1.357822
O       0.938070   -0.082757   -2.186857
C       2.007413    0.422529   -1.370523
H      -0.262338    1.937842    0.883017
H      -0.240453    1.882348   -0.945748
H       2.622478   -0.511249    1.328313
H       1.883704    0.874709    2.151746
H       0.565392   -1.753158    1.341210
H      -0.309351   -0.449377    2.165649
H       0.285149   -1.848040   -1.242705
H      -0.960244   -0.745486   -1.881246
H       2.411482    1.289997   -1.902584
H       2.812951   -0.322015   -1.258689
