20

C      -0.062405    1.580420   -0.006193
C      -0.003136    0.051216    0.003658
C       0.723552   -0.513559    1.226112
O       0.084449   -0.151429    2.447817
C       0.901978   -2.045367    1.139020
O       1.586517   -2.430332   -0.037963
C       1.590830   -2.584337    2.411114
C       1.671849   -4.041018    2.437296
N       1.728003   -5.194724    2.463317
H       0.942101    2.012456   -0.073166
H      -0.639830    1.945718   -0.860151
H      -0.524426    1.961225    0.908889
H      -1.021485   -0.366649   -0.013646
H       0.491295   -0.326592   -0.896091
H       1.724817   -0.060553    1.292407
H      -0.856709   -0.339921    2.355145
H      -0.088627   -2.509927    1.054705
H       2.491410   -2.100666    0.012187
H       2.605663   -2.170077    2.481064
H       1.046942   -2.226949    3.289892
