18

C       0.050752    1.590380    0.408200
C      -0.011370    0.143865   -0.110118
C      -1.386237   -0.449621   -0.048208
C      -2.151164   -0.808897   -1.111198
N      -1.924027   -0.759804   -2.483547
O      -3.377861   -1.316362   -0.647360
C      -3.328229   -1.252359    0.698751
O      -4.407785   -1.694679    1.366599
C      -2.155152   -0.737651    1.141419
H       1.072138    1.980386    0.353489
H      -0.596157    2.244584   -0.184596
H      -0.278559    1.655046    1.450205
H       0.333375    0.107619   -1.148080
H       0.680649   -0.474853    0.476318
H      -1.951545   -1.673779   -2.924705
H      -2.573268   -0.152787   -2.974149
H      -5.057620   -1.990086    0.718420
H      -1.869063   -0.586277    2.169023
