20

C      -0.364140    1.450823   -0.117295
N       0.110907    0.081008    0.078751
C       1.364139   -0.494556   -0.302030
C       2.623449    0.281464    0.187588
O       2.593461    1.733161    0.182364
C       2.220748    1.764269    1.587817
C       2.125238    0.227675    1.636081
C       0.843874   -0.531039    1.144764
C       0.206496   -1.631510    1.945048
H       0.425208    2.180658   -0.300311
H      -1.040861    1.447909   -0.978965
H      -0.951770    1.749754    0.756366
H       1.382523   -1.267663   -1.066791
H       3.582666   -0.127312   -0.140806
H       3.038305    2.173038    2.193859
H       1.312454    2.346195    1.770039
H       2.678555   -0.300111    2.411602
H      -0.365314   -1.220289    2.786560
H      -0.482127   -2.203490    1.318372
H       0.959386   -2.310954    2.359142
