23

C       0.011800    1.542557    0.112435
C      -0.020744    0.012718    0.086629
C      -1.438529   -0.559207   -0.029166
O      -2.108454   -0.069067   -1.192569
C      -1.456515   -2.093797    0.010027
C      -2.864851   -2.657936    0.067455
C      -3.040367   -4.174499    0.305959
C      -3.834740   -3.740742    1.553488
O      -3.521742   -2.351954    1.327063
H       1.039109    1.917782    0.143932
H      -0.480343    1.954149   -0.772554
H      -0.513978    1.930183    0.991901
H       0.578015   -0.362172   -0.757673
H       0.448743   -0.390287    0.992622
H      -2.044092   -0.189688    0.807278
H      -1.587843   -0.335181   -1.959455
H      -0.947692   -2.488060   -0.883161
H      -0.894871   -2.447958    0.883256
H      -3.451805   -2.265995   -0.772543
H      -3.595558   -4.722914   -0.456427
H      -2.108432   -4.702356    0.521596
H      -4.915137   -3.928879    1.502167
H      -3.462269   -4.094399    2.522245
