16

C      -0.094070    1.415273    0.046839
C       1.347000    0.872353    0.008169
C       2.034370    0.526080    1.289171
C       1.447390   -0.495270    1.922583
C       0.205583   -0.959052    1.190518
N       0.211058   -2.312900    0.585671
C      -0.026549   -2.128921   -0.646478
O      -0.180474   -0.863479   -1.139695
C       0.150739   -0.041454   -0.032174
H      -0.489962    1.830445    0.969449
H      -0.422353    1.913804   -0.859527
H       1.923958    1.101215   -0.880893
H       2.912425    1.054585    1.643159
H       1.750944   -0.914662    2.873811
H      -0.671857   -0.892783    1.849042
H      -0.140164   -2.908048   -1.391532
