17

C      -0.250786    1.475575    0.004773
C      -0.007325   -0.002216   -0.028566
N       0.101952   -0.588424   -1.180361
N       0.321008   -1.923028   -1.142650
C       0.438110   -2.712328   -0.011261
N       0.645760   -3.978468    0.032315
C       0.293345   -1.915819    1.224823
C       0.397703   -2.639190    2.527583
N       0.083820   -0.639880    1.200905
H       0.551039    1.980252    0.553995
H      -0.304630    1.876386   -1.007952
H      -1.184595    1.694807    0.533199
H       0.401577   -2.351010   -2.053431
H       0.722973   -4.384631   -0.902395
H       1.364417   -3.148630    2.597084
H       0.274191   -1.938965    3.353678
H      -0.357637   -3.430265    2.578573
