25

C      -1.932381    1.487831    2.232113
C      -1.742011   -0.008453    2.110969
C      -0.871062   -0.601458    1.029663
C      -0.445200   -0.704449    2.478978
C       0.754161    0.046948    2.971611
C       1.135726    0.113789    4.440940
C       0.320698   -0.559308    5.525705
C       2.009659   -0.651404    3.466122
C       2.163190   -2.157661    3.495392
H      -1.034527    2.039958    1.940526
H      -2.748716    1.828611    1.585375
H      -2.178988    1.777882    3.259814
H      -2.638605   -0.577647    2.345539
H      -1.200927   -1.495989    0.512070
H      -0.318829    0.092353    0.401961
H      -0.579822   -1.686267    2.920571
H       0.942620    0.959809    2.412945
H       1.543002    1.071222    4.758581
H      -0.107688   -1.511930    5.205647
H       0.934243   -0.757117    6.412040
H      -0.512631    0.080468    5.837325
H       2.935270   -0.146343    3.198605
H       1.253928   -2.673737    3.811695
H       2.428493   -2.542484    2.504327
H       2.959568   -2.451764    4.188358
