22

C      -0.111973    1.571818    0.167096
C       0.116985    0.057082    0.177205
C       0.660606   -0.460555   -1.156276
C       0.598781   -2.015823   -1.459017
C      -0.467994   -1.629523   -2.497916
C      -0.978994   -1.416819   -3.953823
C      -1.421887   -0.183783   -3.051658
C      -1.893936   -1.194257   -1.998858
N       0.024915   -0.217032   -2.540762
H       0.807694    2.107589   -0.091937
H      -0.872416    1.849841   -0.569457
H      -0.443646    1.928870    1.146784
H       0.865866   -0.193143    0.941566
H      -0.797585   -0.459228    0.482312
H       1.676073   -0.063204   -1.253473
H       1.532664   -2.389910   -1.883621
H       0.270430   -2.671451   -0.648828
H      -0.203033   -1.199042   -4.687166
H      -1.782773   -2.049239   -4.339592
H      -1.911479    0.730366   -3.397600
H      -2.736315   -1.840345   -2.265544
H      -1.987566   -0.833879   -0.978264
