20

C       0.001608    1.429453    0.227595
O       0.017128    0.059946   -0.138209
C      -1.238071   -0.575203   -0.047539
C      -1.129290   -1.936429   -0.743842
C      -0.939128   -1.777363   -2.259696
C      -0.754849   -3.123047   -2.956887
O      -2.014377   -1.032689   -2.830694
C      -1.658549   -0.728631    1.364463
N      -1.983130   -0.840961    2.468001
H       1.015618    1.805215    0.079029
H      -0.692564    2.003232   -0.403050
H      -0.280823    1.563319    1.280482
H      -2.008273    0.017589   -0.564571
H      -0.288440   -2.485517   -0.307643
H      -2.039464   -2.514635   -0.542179
H      -0.056140   -1.153047   -2.428123
H      -1.624029   -3.772198   -2.789604
H      -0.638460   -2.976991   -4.033960
H       0.128311   -3.647748   -2.579442
H      -2.794187   -1.599699   -2.839177
