23

C       0.112667    1.537506    0.020271
C       0.028313    0.001968    0.029451
C       0.462573   -0.598344   -1.312624
C       0.815632   -0.546630    1.187895
C       2.271737   -0.892519    1.258321
C       1.228810   -1.925783    1.654874
C       0.591121   -1.534192    2.986583
C       1.375915   -1.586689    4.281313
O       0.354893   -0.177057    2.501859
H       1.137467    1.869353   -0.180550
H      -0.537191    1.957261   -0.754287
H      -0.193066    1.947459    0.986393
H      -1.019876   -0.275719    0.207257
H       1.486888   -0.305907   -1.567292
H       0.412930   -1.692115   -1.302237
H      -0.190083   -0.241688   -2.115214
H       2.760143   -1.105432    0.312911
H       2.904471   -0.415898    2.001435
H       1.147183   -2.890591    1.171641
H      -0.378861   -2.034382    3.112485
H       2.370799   -1.148671    4.166296
H       0.847466   -1.035460    5.065781
H       1.488078   -2.625013    4.611885
