16

C       0.036077    1.452577   -0.039905
N      -0.028727    0.013282    0.084376
C       0.602921   -0.675042    1.079758
N       1.122970    0.023279    2.098457
C       1.694309   -0.688250    3.070161
C       1.766316   -2.074943    3.046880
O       2.342296   -2.845025    4.016613
C       1.205165   -2.696692    1.928247
N       0.628207   -2.017732    0.948634
H       1.050158    1.817396   -0.255566
H      -0.628306    1.763480   -0.849355
H      -0.294404    1.926750    0.887468
H      -0.251876   -0.539098   -0.726299
H       2.117756   -0.124530    3.903207
H       2.681106   -2.273738    4.713988
H       1.237020   -3.780783    1.840884
