19

C       0.187874    1.424412    0.008483
C       0.026319   -0.059267   -0.051627
C      -0.009893   -0.830029   -1.153407
C      -0.148783   -2.262562   -0.812714
O      -0.192526   -3.199147   -1.579744
C      -0.186650   -2.346936    0.714449
C       1.190429   -2.666705    1.387287
C       1.268856   -1.211167    1.924934
C      -0.088354   -0.882100    1.208186
H       1.065426    1.694514    0.609217
H       0.298452    1.867632   -0.983821
H      -0.676601    1.886695    0.501431
H       0.067765   -0.484982   -2.177613
H      -1.022022   -2.957835    1.058142
H       1.131599   -3.429655    2.165402
H       1.976250   -2.955426    0.685955
H       1.213610   -1.137311    3.013109
H       2.125447   -0.624271    1.584101
H      -0.872243   -0.507824    1.873042
