21

C       0.432753    1.431550   -1.327896
C       0.340173   -0.049641   -0.943827
C       1.548271   -1.041586   -0.973837
C       2.072531   -0.480928    0.393328
C       2.853646    0.814268    0.565555
C       0.530484   -0.585004    0.528910
O      -0.162201   -0.219293    1.667411
C       0.677624   -2.002636   -0.092304
O      -0.506146   -2.574213   -0.591569
H       1.405055    1.711341   -1.740455
H      -0.314061    1.666140   -2.092606
H       0.229654    2.085093   -0.472960
H      -0.543840   -0.490133   -1.406163
H       2.148414   -1.320163   -1.839151
H       2.585729   -1.255462    0.979731
H       2.951579    1.035255    1.634084
H       3.867246    0.696786    0.165496
H       2.406497    1.684860    0.092390
H      -1.078938   -0.498144    1.560473
H       1.244673   -2.723069    0.510293
H      -0.270929   -3.328278   -1.140501
