20

C      -0.084105    1.511171    0.152380
C       0.006776   -0.005346   -0.011819
C       0.890757   -0.434272   -1.214538
O       1.658962   -1.515730   -0.707999
C       1.898437   -1.163830    0.626643
O       0.708034   -0.573771    1.112476
C      -1.384629   -0.626974   -0.081785
C      -1.597179   -2.067442    0.182696
N      -2.067791   -1.051006    1.145294
H       0.912187    1.947268    0.268298
H      -0.560180    1.965856   -0.723180
H      -0.680453    1.764914    1.032805
H       0.312949   -0.791610   -2.068900
H       1.543686    0.391533   -1.537326
H       2.125399   -2.064934    1.203361
H       2.733436   -0.443264    0.701025
H      -2.037553   -0.129702   -0.798006
H      -2.383526   -2.603875   -0.340515
H      -0.730011   -2.663596    0.447567
H      -1.391188   -1.009327    1.906122
