18

O       0.047609    1.377373    0.046595
C      -0.009834   -0.008751    0.043844
C       0.704810   -0.722870    1.241475
C       0.174180   -2.183360    1.154319
C      -0.745425   -2.114336   -0.096091
C      -1.382659   -0.716812    0.051690
N       0.092186   -1.882633   -1.287733
C       0.616604   -0.621838   -1.214626
O       1.419067   -0.070829   -1.940423
H       0.668805    1.611947   -0.660820
H       1.792001   -0.648397    1.162549
H       0.402260   -0.224913    2.166113
H       0.968386   -2.922875    1.024953
H      -0.400298   -2.464430    2.041629
H      -1.419623   -2.957886   -0.239004
H      -1.929948   -0.588580    0.988769
H      -2.013304   -0.441221   -0.795872
H       0.539864   -2.618306   -1.813093
