20

C       0.035173    1.533917   -0.011264
C      -0.025726    0.043728   -0.002703
C      -1.071319   -0.784038   -0.054520
C      -0.615293   -2.221235   -0.017574
C      -1.099923   -2.967221    1.230947
C      -0.958476   -2.987413   -1.300292
O       0.829595   -2.103139    0.062222
C       1.194804   -0.785056    0.072128
N       2.383794   -0.349936    0.135130
H       0.632474    1.887170   -0.858185
H      -0.961663    1.977327   -0.069881
H       0.535908    1.901183    0.890518
H      -2.117635   -0.510610   -0.115172
H      -2.190016   -3.064441    1.219552
H      -0.664568   -3.970079    1.264435
H      -0.808432   -2.428362    2.135828
H      -0.567508   -2.462754   -2.175519
H      -0.522994   -3.990291   -1.269116
H      -2.043138   -3.085407   -1.408869
H       3.048580   -1.123683    0.178448
