19

C       0.052066   -1.225524   -0.110567
C      -0.020803   -0.023711   -0.051014
C      -0.045339    1.390215    0.024195
C      -1.137221    2.171823   -0.038257
C      -0.821200    3.633491    0.068006
C      -1.120336    4.293307    1.450614
C       0.348163    4.011597    1.876097
C       0.708630    3.634147    0.407162
C       1.234074    2.209474    0.162979
H       0.098832   -2.284585   -0.167413
H      -2.146991    1.792688   -0.152356
H      -1.169993    4.197191   -0.804191
H      -1.336928    5.360941    1.357436
H      -1.907289    3.831559    2.052340
H       0.894867    4.854965    2.304191
H       0.441726    3.162815    2.559418
H       1.298184    4.400466   -0.098629
H       1.860322    1.847966    0.987395
H       1.840464    2.127684   -0.748103
