20

C       0.014525    1.600770    0.041894
C       0.073649    0.071326    0.041055
C       0.676339   -0.503070   -1.245379
C       0.683387   -2.034864   -1.286416
O      -0.627357   -2.580653   -1.147898
C       1.368712   -2.576053   -2.556145
C       1.490334   -4.085748   -2.556700
O       2.486544   -4.685766   -2.872694
H       1.013187    2.038814   -0.065728
H      -0.599422    1.975230   -0.785105
H      -0.416331    1.980846    0.973195
H       0.665861   -0.274944    0.898211
H      -0.929704   -0.345438    0.179406
H       0.116558   -0.131456   -2.118379
H       1.704862   -0.140710   -1.371134
H       1.223151   -2.408380   -0.406423
H      -1.174782   -2.210594   -1.850392
H       0.758717   -2.288051   -3.426894
H       2.364798   -2.145309   -2.694646
H       0.570901   -4.619198   -2.234139
