17

O       0.359204    1.191878   -0.373131
C       0.019933   -0.166560   -0.192889
C       0.757359   -0.847647    0.992394
C      -0.198242   -1.928976    1.537548
C      -1.580391   -1.412662    1.182198
O      -1.800139   -0.034367    1.469846
C      -1.453819   -0.393708    0.114473
C      -2.528459   -0.208092   -0.897538
O      -2.332635   -0.181523   -2.085770
H       0.105304    1.658247    0.432245
H       0.247876   -0.653564   -1.146176
H       1.728902   -1.246615    0.695481
H       0.937856   -0.088059    1.758404
H      -0.051511   -2.891492    1.033735
H      -0.083001   -2.102522    2.611905
H      -2.459251   -2.046997    1.275295
H      -3.544322   -0.110719   -0.454291
