15

O       0.178688    1.316713   -0.182574
C       0.067885   -0.050650   -0.063415
C       0.052499   -0.643788    1.423168
N      -1.360407   -0.134972    1.446966
C      -1.402006   -0.648341    0.044130
C      -1.054187   -2.139807    0.178850
C      -0.075688   -2.122484    1.107813
C      -1.584286   -3.203174   -0.579825
N      -2.050830   -4.054763   -1.213488
H      -0.440508    1.692899    0.460377
H       0.743734   -0.522580   -0.776618
H       0.738315   -0.307339    2.198757
H      -1.967113   -0.649680    2.086782
H      -2.222799   -0.346338   -0.603973
H       0.535253   -2.935368    1.472038
