19

C       0.019811    1.499933    0.077186
C       0.005354    0.001770   -0.059962
C       0.691340   -0.699020   -1.239710
C       0.429694   -2.119195   -0.681971
C       1.022751   -1.949414    0.722730
O       0.643070   -0.611845    1.095088
C      -1.107005   -2.122450   -0.532753
C      -1.383505   -0.678045   -0.071443
O      -2.437796   -0.195251    0.242766
H       1.043527    1.865874    0.191887
H      -0.427740    1.966789   -0.804800
H      -0.564962    1.801174    0.950033
H       0.197872   -0.510173   -2.197744
H       1.751726   -0.444616   -1.317223
H       0.842719   -2.952617   -1.250299
H       0.613616   -2.660133    1.450238
H       2.117114   -2.036594    0.728158
H      -1.612226   -2.295799   -1.489595
H      -1.494684   -2.851909    0.183961
