19

C       0.018938    1.508273   -0.000400
N       1.255354    0.692213    0.055397
C      -0.049136    0.032802   -0.004897
C      -0.516179   -0.851238    1.123415
C      -1.750902   -1.533469    0.638014
C      -2.021554   -1.036738   -0.781273
C      -0.539279   -0.829873   -1.169005
C       0.049279   -2.188678   -0.734627
N      -0.458036   -2.264360    0.661179
H      -0.195973    2.069440    0.905138
H      -0.217013    2.034137   -0.922626
H       1.700354    0.678468   -0.860069
H      -0.284206   -0.647307    2.160853
H      -2.533317   -1.895196    1.293821
H      -2.527889   -1.780451   -1.404821
H      -2.599259   -0.108005   -0.798125
H      -0.325112   -0.472190   -2.175373
H      -0.327282   -3.035903   -1.315322
H       1.142707   -2.210986   -0.732414
