21

C      -0.062952    1.532183    0.396359
C      -0.078480    0.159378   -0.300550
C      -1.407070   -0.534288   -0.220706
C      -2.231253   -0.788509   -1.246486
C      -3.456184   -1.544658   -0.821351
O      -3.395798   -2.942703   -1.169876
C      -3.457680   -1.369637    0.727727
O      -4.006557   -2.480019    1.390838
C      -1.980978   -1.052157    1.083348
H       0.923398    1.996897    0.307219
H      -0.798310    2.206065   -0.053800
H      -0.295141    1.445531    1.461925
H       0.204084    0.282409   -1.352071
H       0.688982   -0.478188    0.159891
H      -2.028150   -0.540632   -2.283317
H      -4.387897   -1.191376   -1.272330
H      -2.464556   -3.192647   -1.172814
H      -4.067907   -0.491304    0.972243
H      -3.956840   -3.203079    0.746663
H      -1.459861   -1.961139    1.412643
H      -1.897391   -0.335046    1.906521
