16

O      -0.123627    1.401868    0.143285
C      -0.046429    0.027757    0.068273
C      -0.805810   -0.849728    1.001742
C       0.701667   -1.002219    0.878022
N       1.250491   -1.689587   -0.359988
C       0.171118   -2.183626   -1.201833
C       0.423311   -0.711840   -1.210778
C       1.030646   -0.049809   -2.385678
O       1.588615   -0.638558   -3.281651
H       0.760309    1.772678    0.033939
H      -1.070590   -0.334187    1.920334
H      -1.536357   -1.587916    0.690230
H       1.370300   -0.922155    1.724659
H       0.543087   -2.702147   -2.081059
H      -0.736829   -2.590140   -0.772443
H       0.923472    1.056796   -2.402567
