12

O      -0.086987   -0.018929   -0.001175
C       0.000425    1.180716    0.007736
C       1.284208    1.944899   -0.000034
C       1.255959    3.340585    0.012097
N       2.367810    4.080556    0.006176
C       3.512058    3.399897   -0.012198
C       3.546716    2.000051   -0.024524
N       2.441275    1.266767   -0.018558
H      -0.902662    1.831625    0.022481
H       0.308982    3.875970    0.026948
H       4.432251    3.978552   -0.017270
H       4.495393    1.469166   -0.039502
