17

C      -0.093761    1.313587   -0.060752
N       0.251953   -0.096352   -0.042752
C       0.743179   -0.666807    1.090149
N       0.708701   -0.091585    2.273481
O       1.268807   -1.094019    3.110703
C       1.579733   -2.121445    2.321914
C       2.210107   -3.337536    2.946470
N       2.479410   -4.438660    2.035839
N       1.290222   -1.937182    1.070070
H       0.773394    1.968817    0.100249
H      -0.549557    1.553498   -1.023366
H      -0.819544    1.519046    0.730265
H       0.608864   -0.503633   -0.891980
H       3.144272   -3.028695    3.431275
H       1.557429   -3.683507    3.756793
H       1.612397   -4.719381    1.586153
H       3.072531   -4.108316    1.279684
