19

C      -0.271820    0.293316   -0.627511
C       0.598949   -0.067901    0.577059
C       2.022536    0.457063    0.441353
O       0.070369    0.506423    1.781879
C      -0.995426   -0.192488    2.359509
C      -0.596081   -1.435872    3.165270
O      -1.403710   -2.298196    3.431383
C       0.777890   -1.501536    3.634473
C       1.903873   -1.591072    4.051409
H      -0.304966    1.379799   -0.755306
H       0.136497   -0.152237   -1.540057
H      -1.297473   -0.069656   -0.513268
H       0.630412   -1.163349    0.687217
H       2.016417    1.549886    0.378359
H       2.620057    0.165863    1.308291
H       2.494576    0.061265   -0.462677
H      -1.480758    0.492424    3.067273
H      -1.763047   -0.507424    1.639763
H       2.896118   -1.671842    4.424397
