15

O       0.194690    1.510518    0.398459
C       0.114703    0.148483    0.096603
C       0.239690   -0.894960    1.276191
C      -1.208021   -1.303085    1.022044
N      -2.017795   -0.058181    1.125527
C      -1.324575   -0.391554   -0.141212
C       1.040281   -0.117080   -1.072655
O       1.491547   -1.197137   -1.354632
H      -0.558183    1.687137    0.981275
H       0.952719   -1.678443    1.013254
H       0.464452   -0.466117    2.254931
H      -1.666471   -2.270634    1.178899
H      -2.999422   -0.306232    1.011228
H      -1.864360   -0.480813   -1.075825
H       1.253842    0.793397   -1.673245
