13

O       0.135727    1.369714    0.221376
C       0.059673   -0.014635    0.059726
C      -1.339365   -0.633152   -0.007591
O      -1.947202   -0.048040   -1.178924
C      -1.093296   -1.199983   -1.345365
C       0.327460   -0.631492   -1.397047
O       0.625191    0.240746   -2.445361
H      -0.552857    1.755408   -0.333326
H       0.706516   -0.470748    0.812997
H      -2.009916   -0.959876    0.778368
H      -1.530086   -2.065087   -1.830052
H       1.108366   -1.395287   -1.371432
H      -0.144566    0.809962   -2.564080
