20

C       0.473570    1.368423   -0.032760
C       0.004524   -0.098075   -0.041967
C      -1.533817   -0.141059    0.009502
C       0.561523   -0.946154   -1.218648
N       1.472561   -2.005299   -0.699994
C       2.639026   -1.468082   -0.020647
C       1.456084   -1.926190    0.774403
C       0.531968   -0.836041    1.213495
O       0.195224   -0.598330    2.346879
H       1.562047    1.459178   -0.097661
H       0.043789    1.911274   -0.881353
H       0.149511    1.860825    0.888856
H      -1.960212    0.378891   -0.854808
H      -1.906088   -1.170564    0.002938
H      -1.891199    0.341311    0.923216
H      -0.252526   -1.455769   -1.741973
H       1.100812   -0.343935   -1.956340
H       3.520885   -2.101960   -0.035853
H       2.845211   -0.402299   -0.079866
H       1.500252   -2.841528    1.354540
