19

O       0.100128    0.027088    0.045716
C      -0.031264    1.216517    0.062838
C      -1.223856    2.161037    0.263771
C      -0.195022    3.289994    0.571130
C       0.987894    2.384145    0.060375
C       2.276258    2.183266    0.896174
C       3.444913    2.772548    0.062618
C       2.834337    2.960818   -1.301965
C       1.518884    2.753991   -1.304295
H      -1.777986    2.318425   -0.667591
H      -1.934373    1.875339    1.043323
H      -0.335435    4.227596    0.030958
H      -0.114476    3.503700    1.639595
H       2.192588    2.635815    1.887554
H       2.422626    1.107941    1.038778
H       3.802449    3.730525    0.464186
H       4.315533    2.107017    0.045125
H       3.414195    3.262130   -2.167826
H       0.867141    2.859069   -2.165308
