20

C       0.045003    1.293445   -0.273193
O      -0.007054   -0.034368    0.219619
C      -1.271215   -0.584304    0.193773
C      -1.894811   -1.095334   -1.080647
C      -1.627868   -2.057329    0.063361
C      -0.756956   -3.271415   -0.076627
C      -2.738665   -1.875763    1.111831
C      -2.340914   -0.368834    1.270765
H       1.089202    1.611318   -0.227719
H      -0.306036    1.349289   -1.313179
H      -0.561183    1.978390    0.336586
H      -2.910853   -0.830734   -1.369385
H      -1.196764   -1.184294   -1.907867
H       0.108303   -3.061831   -0.713239
H      -0.381234   -3.604362    0.897712
H      -1.306680   -4.108216   -0.524415
H      -3.757740   -2.074434    0.763636
H      -2.562222   -2.450468    2.024703
H      -1.901489   -0.164091    2.249945
H      -3.113714    0.378423    1.062089
