19

C      -0.283491    1.375975   -0.146139
N       0.113684   -0.023020   -0.129963
C       1.338506   -0.434052   -0.875031
C       1.877651   -1.108881    0.388254
C       1.998082   -0.078566    1.488196
C       0.638326   -0.604053    1.105974
C      -0.296197   -1.304529    2.065408
C      -1.072119   -0.367113    2.882739
N      -1.678295    0.385960    3.516024
H       0.519620    2.075825    0.142165
H      -0.618508    1.642478   -1.153714
H      -1.123195    1.522880    0.539008
H       1.105737   -1.111899   -1.702360
H       1.948799    0.397074   -1.253626
H       2.345109   -2.083417    0.440499
H       2.394677   -0.449494    2.428343
H       2.287646    0.942285    1.254550
H      -0.992994   -1.935845    1.503012
H       0.275313   -1.956396    2.735261
