19

C       0.456926    1.440852   -0.038121
O       0.575777    0.040531   -0.097633
C       0.118698   -0.597659    1.071000
C       0.327047   -2.090948    0.973430
C      -0.315768   -2.936518    1.881146
C      -0.114896   -4.312166    1.833831
C       0.729379   -4.861275    0.870269
C       1.368145   -4.024075   -0.039997
C       1.170986   -2.645470    0.011174
H       1.042483    1.865936    0.792693
H       0.837346    1.841538   -0.980626
H      -0.591088    1.757078    0.085665
H       0.656705   -0.201418    1.952053
H      -0.950389   -0.377603    1.237663
H      -0.980933   -2.514401    2.629958
H      -0.621863   -4.956070    2.545212
H       0.884234   -5.934346    0.828442
H       2.024259   -4.443958   -0.795854
H       1.662645   -1.989745   -0.696317
