19

C      -0.073118    1.563728    0.018417
C       0.025099    0.042147    0.012688
C       0.776369   -0.552544   -1.208651
C       1.478157   -1.840927   -0.694097
C       1.635967   -1.545177    0.767001
C       2.249283   -1.935079    1.929462
N       1.825256   -1.142837    2.976196
C       0.963811   -0.291120    2.455878
N       0.824035   -0.491110    1.116637
H       0.923041    2.015786   -0.008196
H      -0.632896    1.905097   -0.857660
H      -0.594145    1.928309    0.908803
H      -0.986218   -0.383631    0.072113
H       0.103731   -0.735826   -2.049747
H       1.532085    0.168408   -1.538384
H       0.847247   -2.724176   -0.857188
H       2.425095   -2.026459   -1.207805
H       2.969768   -2.724157    2.081447
H       0.436862    0.481564    2.994617
