16

N       0.152625    1.222577    0.460795
C       0.040843   -0.009042   -0.127035
O       0.952430   -0.539766   -0.735737
C      -1.264588   -0.676485    0.046624
C      -1.578888   -2.171295    0.234331
C      -2.551891   -1.854663    1.372709
C      -2.689535   -0.466116    0.700362
O      -3.337058   -0.763400   -0.568894
C      -2.122159   -1.400487   -0.956440
H       0.979510    1.757489    0.246489
H      -0.661902    1.721139    0.775646
H      -0.872048   -2.983446    0.133514
H      -3.472390   -2.439575    1.459622
H      -2.034804   -1.794481    2.332981
H      -3.100704    0.408367    1.201456
H      -1.942141   -1.628270   -1.997679
