15

C       0.012946   -1.197049   -0.005534
C       0.036220    0.003033    0.001945
C       0.022697    1.456765    0.011524
O       1.359123    1.948608   -0.001030
C       1.458188    3.298451    0.006121
C       0.486037    4.257939    0.023828
O       1.071586    5.495325    0.024417
C       2.411533    5.304000    0.007027
C       2.717820    3.982189   -0.004849
H      -0.000373   -2.259037   -0.012229
H      -0.520590    1.839697   -0.866160
H      -0.499719    1.828185    0.906656
H      -0.588738    4.243606    0.036725
H       3.013200    6.197932    0.005283
H       3.695256    3.528544   -0.019471
