16

N      -0.076818    1.155850   -0.517022
C      -0.013025   -0.041106   -0.146571
C      -1.033388   -1.095511    0.285703
N      -1.435724   -1.952145   -0.860600
C      -0.436750   -2.992396   -0.499354
C       0.179398   -2.046718    0.560110
N       1.047385   -0.978047    0.043344
C       2.388784   -0.894186   -0.204260
O       2.935325    0.094096   -0.641919
H       0.850958    1.511351   -0.755505
H      -1.793147   -0.819319    1.015813
H      -2.398067   -2.262326   -0.826150
H      -0.864269   -3.887036   -0.029890
H       0.213512   -3.300212   -1.324650
H       0.468149   -2.443650    1.532331
H       2.924522   -1.830181    0.049343
