18

C       0.047301    1.480518    0.131952
C       0.011017   -0.030790    0.017121
O       0.692834   -0.567859    1.164087
C       0.763174   -1.897549    1.239165
N       0.270533   -2.679953    0.370592
C       1.509929   -2.308508    2.502101
O       1.968610   -1.550243    3.312152
O       1.583234   -3.648984    2.581976
C       2.268353   -4.154180    3.736195
H       1.077769    1.845837    0.150729
H      -0.463427    1.928533   -0.725561
H      -0.452101    1.814550    1.045568
H      -1.012037   -0.421573   -0.000542
H       0.508604   -0.390483   -0.889911
H       0.446514   -3.645743    0.638914
H       3.300463   -3.795918    3.754263
H       1.766052   -3.829068    4.650505
H       2.239353   -5.239602    3.646525
