23

C       0.167184    1.066191    0.591639
N      -0.321225    0.125508   -0.399996
C      -1.256135   -0.827765   -0.040235
O      -1.848303   -0.814770    1.026995
N      -1.475206   -1.794801   -1.000080
C      -2.570387   -2.744034   -0.830834
C      -2.183868   -3.984014   -0.005490
C      -3.423182   -4.848818    0.251461
C      -1.066820   -4.788184   -0.678939
H       0.415642    2.019118    0.115129
H      -0.629451    1.223432    1.318868
H       1.052753    0.699068    1.128265
H       0.314957   -0.115091   -1.143699
H      -1.174420   -1.599024   -1.940272
H      -3.406616   -2.233823   -0.341502
H      -2.900522   -3.053042   -1.829901
H      -1.816820   -3.610429    0.957897
H      -3.845520   -5.225812   -0.688686
H      -3.176058   -5.716737    0.871047
H      -4.206252   -4.282191    0.766071
H      -0.745350   -5.623788   -0.048844
H      -1.405336   -5.207288   -1.635455
H      -0.193396   -4.159542   -0.876158
