19

O      -0.520918    0.583044    1.132869
C      -0.180491    1.216585    0.161225
N       1.065768    1.168010   -0.413737
C       2.112206    0.374618    0.052074
N       3.228368    0.398015   -0.541887
C       4.325522   -0.430124   -0.057311
C       4.111888   -1.252966    1.195401
C       3.440332   -2.604458    1.118901
C       4.918350   -2.510668    1.397462
H      -0.849235    1.914941   -0.376928
H       1.263198    1.735620   -1.226057
H       1.837434   -0.216738    0.925175
H       4.612590   -1.097352   -0.882566
H       5.186316    0.238229    0.083229
H       3.914016   -0.671340    2.092587
H       2.779852   -2.901827    1.925855
H       3.131280   -2.957781    0.140322
H       5.603966   -2.804544    0.608951
H       5.270275   -2.739155    2.397098
