18

C      -0.015284    1.389934    0.217971
C       1.380079    2.026686   -0.019585
C       2.227597    1.210480   -1.005842
O       2.166475   -0.158008   -0.549726
C       0.855324   -0.542453   -0.936520
O      -0.095756   -0.020834   -0.054544
C       0.769042   -0.039357   -2.399651
N       0.223265    1.322133   -2.570661
C       1.683627    1.118527   -2.441599
H      -0.289039    1.492703    1.273193
H      -0.763542    1.902133   -0.387282
H       1.252681    3.056745   -0.367197
H       1.938440    2.057658    0.920702
H       3.273843    1.522982   -0.986905
H       0.776146   -1.628797   -0.859775
H       0.684818   -0.761467   -3.203925
H      -0.011134    1.464457   -3.551432
H       2.333394    1.330731   -3.282962
