20

C      -0.043632    1.548189   -0.154383
C      -0.021664    0.042058    0.003914
C      -1.302905   -0.570250    0.520429
O      -1.670980    0.087827    1.718565
C      -2.860051   -0.431412    2.276882
C      -3.212478    0.310594    3.480469
C      -3.527237    0.906029    4.474514
C       0.824685   -0.772418   -0.905479
N       1.199018   -0.609686    0.511610
H       0.906992    1.913023   -0.556578
H      -0.840112    1.860331   -0.839432
H      -0.227242    2.030590    0.809267
H      -2.104195   -0.460645   -0.232207
H      -1.148733   -1.645182    0.698942
H      -3.688551   -0.370212    1.549373
H      -2.736780   -1.500284    2.522435
H      -3.798769    1.435531    5.354021
H       0.527581   -1.780125   -1.185670
H       1.394376   -0.245396   -1.666871
H       1.946145    0.075432    0.596460
