16

C      -0.643744    0.609609    0.573586
O       0.260962    0.895389   -0.483720
C       0.547192   -0.145787   -1.287258
C       0.128707   -1.462976   -1.338169
C       0.833214   -1.985329   -2.445658
N       1.613236   -1.083986   -3.027153
N       1.430597    0.048888   -2.295632
C       2.089986    1.281981   -2.660795
H      -0.767800    1.537618    1.132782
H      -1.614363    0.283270    0.181092
H      -0.242583   -0.168772    1.233746
H      -0.562937   -1.963776   -0.682952
H       0.801366   -2.992445   -2.835945
H       1.440639    1.920774   -3.269942
H       2.376122    1.828936   -1.760007
H       2.978716    1.023253   -3.236257
