17

C      -0.005948    1.509198    0.027206
C       1.298725    0.718602    0.030960
C      -0.019330    0.018881   -0.040292
O      -0.455916   -0.732883    1.082276
C      -1.064438   -1.902451    0.474436
O      -0.263488   -2.137962   -0.661119
C      -0.495491   -0.833603   -1.234093
C      -2.019725   -0.747345   -1.217322
C      -2.386006   -1.434893   -0.135009
H      -0.318105    1.961857    0.961559
H      -0.263973    2.079615   -0.859634
H       1.924727    0.745892   -0.855226
H       1.838522    0.650271    0.968557
H      -1.043558   -2.729115    1.180551
H       0.037621   -0.703621   -2.173186
H      -2.620496   -0.136469   -1.875858
H      -3.360972   -1.536864    0.319435
