17

C       0.022233    1.496620   -0.075007
C       0.063847    0.009240    0.003091
C       0.254656   -1.063226   -1.017761
C       0.408940   -2.048997    0.158770
C       0.647302   -0.897629    1.175260
C      -0.303908   -1.338030    2.349878
N      -1.570483   -1.584633    1.583505
C      -1.094672   -1.777343    0.417698
N      -1.152597   -0.776727   -0.641223
H       1.018424    1.917353    0.104729
H      -0.323356    1.823494   -1.058831
H      -0.660733    1.902662    0.678974
H       0.617907   -1.045630   -2.036387
H       0.906512   -3.012742    0.202907
H       1.675201   -0.616770    1.424806
H       0.127271   -2.203195    2.877225
H      -0.524865   -0.568708    3.095971
