19

C      -0.101149    1.505177    0.016938
C      -0.011731   -0.007306   -0.035712
C      -1.172200   -0.715501   -0.708732
C       1.363050   -0.629376   -0.144100
C       0.619900   -0.685598    1.163616
O       1.042275    0.007525    2.346091
C       0.602727   -1.067772    3.210865
C       0.157923   -1.858927    1.967920
O      -0.331930   -2.927138    1.744476
H       0.725353    1.937269    0.585831
H      -0.082438    1.924016   -0.995439
H      -1.034971    1.821986    0.493774
H      -1.206485   -0.462558   -1.774851
H      -1.089279   -1.801460   -0.615558
H      -2.126287   -0.413818   -0.262793
H       1.483029   -1.560759   -0.688905
H       2.221478    0.034473   -0.163046
H       1.424755   -1.511889    3.783204
H      -0.204192   -0.763957    3.887539
