15

O      -0.058597    0.058043   -0.153894
C      -0.081678    1.252697   -0.004297
C      -1.238790    2.166039    0.158226
C      -0.606246    3.431932    0.757277
O       0.769083    3.211190    0.981626
C       1.131473    2.208383    0.026563
C       1.219524    2.896165   -1.342180
O      -0.046837    3.471021   -1.687756
C      -0.999098    3.457609   -0.672581
H      -2.233360    1.797928    0.367907
H      -1.075400    4.032479    1.526435
H       2.065652    1.734343    0.323635
H       1.973808    3.689806   -1.286270
H       1.496979    2.191467   -2.134453
H      -1.887995    3.999949   -0.972268
