13

C      -0.025537   -1.218604   -0.011390
C       0.010040   -0.016915    0.009397
C       0.045708    1.411499    0.042961
C       0.493725    2.181999    1.272846
O       1.249591    1.459759    2.224388
C       2.389210    1.099574    1.572098
N       2.560731    1.496721    0.376048
C       1.360207    2.213499    0.031571
H      -0.056606   -2.279530   -0.038085
H      -0.755593    1.912545   -0.493616
H      -0.101740    2.973937    1.707457
H       3.073613    0.495694    2.153450
H       1.456046    3.043957   -0.656355
