19

C       0.086044    1.507377   -0.061590
C      -0.016129   -0.019843   -0.021596
C      -1.460582   -0.542087    0.035806
C      -2.308655   -0.195626   -1.194721
O      -1.815913   -0.711449   -2.434963
C      -2.867959   -1.424588   -1.783758
C      -2.391636   -2.601347   -0.946903
O      -0.975634   -2.785443   -0.960373
C      -1.548987   -2.069084    0.137332
H       1.131993    1.828246   -0.075501
H      -0.395131    1.917805   -0.955330
H      -0.389419    1.964903    0.813853
H       0.459824   -0.454975   -0.905526
H       0.529820   -0.401412    0.850083
H      -1.968814   -0.121056    0.915353
H      -2.800443    0.772342   -1.262575
H      -3.815759   -1.472927   -2.312273
H      -2.994550   -3.501529   -0.868794
H      -1.441315   -2.551963    1.106954
