18

N       0.327809    0.908945    0.186965
C      -0.023365   -0.352764   -0.128285
O       0.785031   -1.201963   -0.489474
C      -1.515198   -0.672841   -0.008289
O      -2.177431    0.498565    0.424796
C      -2.054279   -1.395467   -1.284950
C      -1.876649   -2.768915   -0.562748
O      -0.744183   -3.497157   -0.934675
C      -1.758671   -1.995026    0.788818
H       1.296996    1.172721    0.126266
H      -0.373088    1.568428    0.478888
H      -3.116539    0.308035    0.504541
H      -3.105443   -1.135599   -1.448144
H      -1.498888   -1.263468   -2.215285
H      -2.727252   -3.450184   -0.638466
H       0.010705   -2.884277   -0.865466
H      -0.973578   -2.328887    1.469681
H      -2.709567   -1.938486    1.328929
