21

C      -0.223254    1.489877   -0.047898
C       0.053542   -0.020623    0.000076
C       0.851833   -0.449855   -1.236515
O       0.048019   -0.193948   -2.380467
C       0.785875   -0.470975    1.294082
C       0.177940    0.111153    2.568947
O       0.880139   -0.474959    3.656097
C       0.733638   -1.988697    1.393938
O       1.605087   -2.738919    1.039816
H       0.698512    2.063321    0.107095
H      -0.623385    1.750192   -1.029989
H      -0.948687    1.803004    0.707752
H      -0.912339   -0.544192   -0.051342
H       1.792877    0.124388   -1.273748
H       1.119917   -1.512144   -1.169970
H       0.541029   -0.465757   -3.159586
H       1.841827   -0.181262    1.237922
H       0.271209    1.204462    2.576814
H      -0.897608   -0.131095    2.610236
H       0.486478   -0.167713    4.477976
H      -0.231280   -2.379571    1.796012
