21

C       0.035103    1.580377   -0.005232
C       0.076770    0.054021   -0.004674
C       0.857290   -0.571853   -1.188562
C       1.289461   -1.954749   -0.706075
C       2.527492   -2.050633    0.134780
C       1.174678   -1.976327    0.826162
C       0.713155   -0.572806    1.258736
C       0.684110   -3.123010    1.528699
C       0.264201   -4.079095    2.127925
H       1.046039    2.000343    0.058849
H      -0.427863    1.966112   -0.919856
H      -0.539427    1.964831    0.844206
H      -0.952089   -0.325064   -0.064253
H       0.239687   -0.631940   -2.089269
H       1.729299    0.044968   -1.443010
H       0.989837   -2.830606   -1.269268
H       3.044436   -3.002890    0.171896
H       3.173452   -1.179960    0.210231
H       1.565956    0.026214    1.602436
H       0.004650   -0.628728    2.088172
H      -0.103271   -4.924655    2.653841
