21

C      -0.012582    1.463497    0.306916
N      -0.178291    0.023826    0.333238
C      -1.286134   -0.600754   -0.164386
O      -2.227668    0.007914   -0.645108
C      -1.247629   -2.126909   -0.102251
C      -2.630057   -2.743806    0.166227
C      -2.604720   -4.259413   -0.063059
C      -3.131788   -2.401683    1.575077
H       0.852278    1.758040   -0.298653
H      -0.916691    1.883067   -0.135683
H       0.113612    1.869451    1.316883
H       0.558313   -0.541541    0.720402
H      -0.876395   -2.472890   -1.076207
H      -0.522577   -2.469851    0.647881
H      -3.316155   -2.287053   -0.555703
H      -1.911469   -4.755043    0.627934
H      -3.596034   -4.695842    0.097213
H      -2.290839   -4.507019   -1.082891
H      -3.194946   -1.319420    1.719528
H      -4.128880   -2.819861    1.746643
H      -2.464345   -2.813157    2.342855
