18

C       0.448221    1.372487    0.418256
N      -0.206892    0.258499   -0.280052
C       0.583249   -0.395873   -1.264735
C       0.233516   -0.376816   -2.596437
O      -0.845976    0.183884   -3.181271
N       1.167003   -1.037192   -3.320212
C       2.155597   -1.519246   -2.453228
C       1.819067   -1.130099   -1.180051
N       2.555071   -1.320057    0.008788
H       1.383238    1.091649    0.923632
H       0.685767    2.156630   -0.306805
H      -0.242219    1.789746    1.158748
H      -0.591282   -0.393487    0.396195
H      -1.337090    0.579415   -2.444598
H       1.133700   -1.171779   -4.314117
H       2.997501   -2.075202   -2.829418
H       3.254292   -2.046162   -0.089202
H       1.953698   -1.563751    0.787480
