21

N       0.067610    1.547791    0.229663
C       0.023354    0.102177   -0.009800
C       0.673581   -0.410811   -1.319121
C      -0.002547    0.134757   -2.582737
C       0.616822   -0.405506   -3.854774
C       0.171759   -1.733256   -4.416309
C      -0.176684   -0.451847   -5.134735
C       0.637115   -0.584288    1.140348
N       1.145814   -1.139827    2.016298
H       1.027214    1.879497    0.185200
H      -0.449906    2.028923   -0.498310
H      -1.036958   -0.184735   -0.017956
H       1.736697   -0.138047   -1.311369
H       0.633543   -1.506226   -1.327218
H      -1.071183   -0.121779   -2.564910
H       0.051978    1.231503   -2.590695
H       1.675022   -0.179042   -3.963366
H       0.915403   -2.387418   -4.857343
H      -0.628953   -2.256712   -3.903220
H      -1.209211   -0.119096   -5.103293
H       0.331370   -0.227999   -6.066095
