21

C       0.690499   -0.016853    0.056536
N      -0.518171   -0.443732    0.804201
H      -0.361921   -1.424931    1.115254
C      -0.825484    0.422557    1.961322
C      -1.773468   -0.657631   -0.238602
C      -1.668349   -2.014863   -0.743292
C      -1.852344   -3.139329    0.227843
O      -0.590807   -3.335141    0.941617
N      -0.797866   -2.177016   -1.753028
O      -0.289504   -3.341465   -1.867159
H       1.577656   -0.143594    0.681243
H       0.757427   -0.632336   -0.844047
H       0.580523    1.034264   -0.220478
H      -1.077718    1.423400    1.603170
H      -1.675839    0.005335    2.503567
H       0.036924    0.482863    2.629838
H      -2.641043   -0.441763    0.389678
H      -1.625745    0.113794   -0.995981
H      -2.609640   -2.932064    0.991021
H      -2.108540   -4.066104   -0.292807
H      -0.018135   -3.609917    0.200217
