17

C      -0.601684    0.884367   -0.435914
O       0.548905    1.380622    0.259018
C       0.323875   -0.023219    0.252230
C      -0.039963   -0.656227    1.570159
C       0.322288    0.021784    2.826624
O      -1.021067    0.042811    2.330356
C      -0.163668   -2.152497    1.535944
C      -1.217461   -2.851163    2.277106
O      -1.311331   -2.674852    0.860746
H      -1.553681    1.110378    0.036528
H      -0.565068    0.970478   -1.520190
H       1.033834   -0.598447   -0.344062
H       0.473867   -0.566155    3.730425
H       0.843918    0.973412    2.770380
H       0.764122   -2.682803    1.312913
H      -1.048174   -3.873806    2.610557
H      -1.918263   -2.261965    2.862542
