16

C      -0.002845    1.508393    0.093917
C       0.024208    0.011992   -0.015945
C       0.916581   -0.808671   -1.004031
C       0.724390   -1.811416    0.165839
O       0.699281   -0.683449    1.073984
C      -0.788654   -2.152327    0.021670
O      -1.599214   -1.573826    1.046377
C      -1.312330   -0.796207   -0.117878
H       1.010385    1.916246    0.141182
H      -0.514475    1.945475   -0.769993
H      -0.540837    1.809814    0.998210
H       0.518235   -1.062667   -1.991311
H       1.935097   -0.420613   -1.066709
H       1.436330   -2.591756    0.429901
H      -1.160516   -3.040785   -0.476250
H      -2.148331   -0.486352   -0.735743
