12

O      -0.193034   -0.022464   -0.000421
C      -0.074111    1.169080    0.007904
N       1.155660    1.852862   -0.000600
C       2.470253    1.296977   -0.020155
O       2.758321    0.135124   -0.032546
C       3.394585    2.476346   -0.020498
C       2.685535    3.605853   -0.003383
C       1.231393    3.270700    0.010197
O       0.288838    4.017985    0.026835
H      -0.907460    1.890227    0.023186
H       4.466744    2.341352   -0.033506
H       3.027636    4.630836    0.001247
