18

C      -0.029220    1.390447   -0.081948
C       0.038912   -0.095448    0.000619
O      -0.462358   -0.876156   -1.097362
C      -0.375406   -2.029961   -0.213332
C      -0.327444   -1.091628    1.048064
C       1.155460   -0.919362    0.680971
C       1.136298   -2.235207   -0.056850
C       1.817318   -3.508064    0.237189
N       2.101775   -2.745718   -1.005813
H       0.597816    1.758877   -0.900411
H      -1.056886    1.723861   -0.256275
H       0.327766    1.839017    0.849844
H      -1.074901   -2.828131   -0.456196
H      -0.855948   -1.056393    1.989953
H       1.947158   -0.473251    1.268120
H       2.641096   -3.547250    0.944845
H       1.240369   -4.428100    0.166988
H       1.636737   -3.165338   -1.807798
