19

C      -0.035733    1.473353   -0.046118
C       0.023345    0.020934   -0.006694
C       0.090726   -1.184390    0.027731
C       0.098677   -2.596293    0.058384
C       1.144876   -3.425534    0.142536
C       0.677144   -4.848268    0.105228
O      -0.743152   -4.775394    0.067366
C      -1.180399   -3.418330   -0.031932
C      -2.204593   -3.116931    1.058663
H       0.779330    1.888277   -0.649543
H      -0.980499    1.821383   -0.477912
H       0.046407    1.901542    0.959549
H       2.185272   -3.136850    0.211812
H       1.058113   -5.383845   -0.781092
H       0.995195   -5.425850    0.987279
H      -1.652174   -3.262521   -1.016543
H      -1.758104   -3.248853    2.048605
H      -2.563708   -2.087306    0.968664
H      -3.057990   -3.794412    0.967389
