19

C      -0.302062    1.342964   -0.320345
O      -0.274501   -0.062653   -0.601646
C       0.935566   -0.557287   -0.941374
O       1.933556    0.116928   -1.005805
C       0.901632   -2.046541   -1.188336
C      -0.407516   -2.805728   -1.552162
C      -0.348012   -2.128719   -2.955418
C       1.111077   -2.576311   -2.644925
C       0.507490   -3.920062   -2.143282
H       0.367766    1.582744    0.509248
H       0.008359    1.918175   -1.196343
H      -1.334656    1.573232   -0.057791
H       1.542244   -2.527378   -0.441439
H      -1.282835   -2.934259   -0.916059
H      -0.849961   -2.658954   -3.768882
H      -0.550790   -1.057344   -2.998321
H       1.999212   -2.431560   -3.259656
H       1.107179   -4.497293   -1.434140
H       0.057477   -4.561260   -2.905228
