18

C      -0.009616    1.498941   -0.053182
C      -0.086891   -0.016479   -0.070435
O       0.658728   -0.486556   -1.194587
C       0.737274   -1.865660   -1.291771
O      -0.533718   -2.455012   -1.628940
C      -0.440884   -3.097321   -2.840899
N      -1.384874   -3.706131   -3.422091
C       0.943955   -2.961976   -3.319553
C       1.640106   -2.256513   -2.432528
H       1.028471    1.833047    0.029293
H      -0.432528    1.914670   -0.971830
H      -0.571667    1.895191    0.797622
H       0.335753   -0.443612    0.852941
H      -1.126819   -0.357195   -0.149484
H       1.034985   -2.303133   -0.324198
H      -2.245263   -3.638451   -2.875981
H       1.271628   -3.387037   -4.256537
H       2.677341   -1.955401   -2.472654
