15

O       0.613286    0.131205    0.274118
C       0.609591    1.315780    0.401094
O       1.028061    2.146584   -0.591982
C       0.976988    3.521010   -0.315241
C       1.847371    4.102834    0.794546
O       2.840846    3.261744    1.306202
C       3.714477    2.894047    0.238057
O       3.410587    3.709571   -0.882652
C       2.200769    4.359792   -0.636797
H       0.276222    1.862728    1.300269
H       0.009397    3.985624   -0.492697
H       1.476758    4.823888    1.512596
H       4.752840    3.068180    0.544494
H       3.556909    1.839495   -0.016919
H       2.108767    5.304316   -1.157775
