15

O       0.048525    0.008813    0.024356
C       0.008572    1.212408   -0.040643
C      -1.271961    2.062183   -0.137549
C      -0.839948    3.376739   -0.819707
C       0.666415    3.488682   -0.574602
C       1.136324    3.331221    0.832232
C       1.183629    2.133237   -0.113292
H      -2.041266    1.511587   -0.681592
H      -1.658915    2.226835    0.875009
H      -1.025543    3.316040   -1.897163
H      -1.384323    4.249941   -0.446142
H       1.257283    4.092261   -1.253896
H       2.099662    3.752620    1.096098
H       0.416364    3.329350    1.644465
H       2.144949    1.722770   -0.393722
