20

C      -0.077403    0.993400    0.616816
O      -0.213273   -0.003605   -0.381340
C      -1.412300   -0.700953   -0.263312
C      -1.488562   -2.039064   -0.937924
C      -1.447048   -1.950646    0.566292
C      -0.328231   -2.530764    1.466988
C      -1.430823   -2.940442    2.457009
N      -2.146258   -1.697090    2.839795
C      -2.493442   -2.393853    1.568985
H       0.925546    1.415148    0.516427
H      -0.816721    1.797568    0.479814
H      -0.206938    0.577862    1.624728
H      -2.305094   -0.071646   -0.270414
H      -2.416740   -2.314493   -1.428877
H      -0.588983   -2.387887   -1.435232
H       0.170060   -3.388918    1.008394
H       0.419169   -1.832072    1.849883
H      -1.444608   -3.808426    3.104231
H      -2.853291   -1.965732    3.525348
H      -3.501215   -2.743460    1.379096
