21

O      -0.042424    1.422292   -0.169420
C       0.009511    0.018643    0.056441
C      -1.401716   -0.526847    0.007270
C      -2.146483   -0.532441   -1.363935
C      -2.859134   -1.822495   -0.853757
C      -1.579599   -2.075900    0.002501
C      -3.978449   -1.407151    0.077695
C      -3.709097   -0.487876    1.004660
C      -2.316707    0.093136    1.085655
H       0.852900    1.769160   -0.122556
H       0.620317   -0.481857   -0.712557
H       0.460923   -0.209726    1.037417
H      -2.773131    0.325242   -1.616702
H      -1.452832   -0.742214   -2.184129
H      -3.159778   -2.579584   -1.579198
H      -0.789659   -2.562963   -0.578184
H      -1.705452   -2.586284    0.961019
H      -4.962159   -1.854425   -0.026406
H      -4.459025   -0.137769    1.708258
H      -1.887353   -0.086190    2.083251
H      -2.339822    1.182638    0.961969
