23

C      -0.017119    1.670683    0.264475
C      -0.105033    0.160160    0.254609
C       0.987809   -0.684108   -0.347420
C       0.767405   -0.711892    1.149031
C       1.741385   -0.114764    2.103288
C       1.663891   -0.675993    3.310178
C       0.595491   -1.741178    3.363038
C       0.244387   -1.979426    1.867304
C      -1.216818   -2.353039    1.628500
H       1.016181    2.017088    0.359882
H      -0.417664    2.088918   -0.665875
H      -0.586974    2.100171    1.096031
H      -1.112614   -0.216949    0.101019
H       0.708578   -1.566473   -0.916661
H       1.875320   -0.180347   -0.720255
H       2.414987    0.689139    1.828819
H       2.258984   -0.393039    4.171141
H       0.925683   -2.661244    3.859037
H      -0.279843   -1.386208    3.928360
H       0.869943   -2.812097    1.518207
H      -1.892417   -1.563486    1.974991
H      -1.425962   -2.534568    0.568292
H      -1.471063   -3.269812    2.171055
