19

O      -0.036425    1.431230   -0.249562
C       0.021110    0.055689   -0.095538
C       0.587951   -0.888860   -1.164717
C      -0.590462   -1.877021   -0.877132
C      -1.146121   -0.897788    0.163905
C      -0.126718   -0.607429    1.245802
C       0.833304   -1.625530    1.854263
C       0.197463   -2.459831    2.869456
C      -0.348792   -3.129612    3.704846
H       0.732431    1.820559    0.180961
H       0.508817   -0.442224   -2.158030
H       1.611192   -1.254875   -1.025390
H      -1.248769   -1.997182   -1.739511
H      -0.321288   -2.871494   -0.508733
H      -2.194254   -0.672753    0.317732
H      -0.529173    0.087975    1.979288
H       1.258479   -2.266900    1.074293
H       1.685651   -1.097102    2.302233
H      -0.823930   -3.728274    4.441614
