15

O       0.186302    1.360069   -0.288187
C       0.045898    0.030085   -0.015632
C      -0.329268   -0.936569   -1.111581
C      -1.190023   -0.893309    0.124455
N      -0.499056   -1.573773    1.223496
C      -0.647954   -2.802315    1.802903
O       0.122970   -3.262825    2.616238
C       0.630174   -0.696088    1.172362
N       1.650196   -0.512863    1.880571
H       0.277455    1.831874    0.548646
H      -0.752460   -0.430751   -1.975148
H       0.274711   -1.810726   -1.337308
H      -2.244554   -0.661786    0.173266
H      -1.572063   -3.314064    1.470774
H       1.694358   -1.198413    2.636547
