14

C      -0.028673    1.517540    0.012902
C      -0.006929    0.023217   -0.039678
C      -0.037853   -0.718359   -1.179212
C      -0.012999   -2.143345   -1.120152
N       0.039488   -2.809793   -0.001791
N       0.069481   -2.067957    1.113273
C       0.052315   -0.677609    1.244383
O       0.085282   -0.153230    2.346126
H       0.859649    1.893240    0.532006
H      -0.073378    1.954630   -0.987007
H      -0.886765    1.865497    0.597993
H      -0.081953   -0.233996   -2.150583
H      -0.037303   -2.743081   -2.022833
H       0.110202   -2.592735    1.977514
