17

C       0.089479    1.477006   -0.062546
C       0.074825   -0.024655   -0.018328
O       1.080864   -0.704477   -0.030852
C      -1.273541   -0.765869    0.022932
O      -1.060810   -2.128336   -0.223501
C      -1.955994   -0.610914    1.420277
O      -2.268545    0.716012    1.728647
C      -3.220951   -1.454621    1.445060
O      -4.286642   -0.947672    1.707176
H       1.113495    1.842854    0.019192
H      -0.341811    1.811067   -1.014073
H      -0.545276    1.882357    0.729254
H      -1.945824   -0.332964   -0.732089
H      -0.092419   -2.232468   -0.202101
H      -1.259251   -1.040647    2.160331
H      -3.232135    0.727958    1.864233
H      -3.109959   -2.524772    1.207308
