14

C       0.034463    1.514885    0.016297
C      -0.039292    0.028847   -0.027694
C      -0.218448   -0.862550   -1.062336
O      -0.417879   -0.529509   -2.368985
C       0.082920   -1.369195   -3.332245
O      -0.110064   -1.159355   -4.486925
N      -0.220478   -2.134921   -0.600816
N      -0.040648   -2.102567    0.692219
N       0.061625   -0.807982    1.038214
H       0.992393    1.863692    0.416992
H      -0.072338    1.908332   -0.996495
H      -0.763850    1.944773    0.630960
H       0.651181   -2.207258   -2.903204
H       0.189316   -0.572082    2.010101
