15

C      -0.349181   -1.215224   -0.465800
C      -0.188282   -0.049754   -0.221450
C      -0.033446    1.363698    0.043429
C      -0.230797    1.946755    1.480308
C       1.156700    2.557271    1.313558
C       2.188127    1.514085    1.092109
C       2.127834    0.218684    1.722876
N       2.134406   -0.795068    2.279439
N       1.365570    1.962368   -0.062641
H      -0.469262   -2.252941   -0.658739
H      -0.634204    1.931666   -0.672256
H      -1.037645    2.677573    1.531465
H      -0.337933    1.225912    2.292844
H       1.437504    3.579539    1.543238
H       3.207199    1.872641    0.975656
