19

O       0.171194    1.365908   -0.297090
C       0.056197    0.026069    0.163047
C      -1.350256   -0.477424    0.143390
C      -1.858747   -1.908884    0.096194
C      -2.849412   -2.175127    1.232354
C      -3.111351   -0.767781    1.843119
C      -2.618925    0.172027    0.750546
O      -3.385596   -0.117957   -0.471440
C      -2.290712   -0.896847   -0.949563
H      -0.241216    1.406557   -1.166701
H       0.697165   -0.658813   -0.416079
H       0.448263    0.037911    1.187329
H      -1.179733   -2.687001   -0.237400
H      -3.774025   -2.619286    0.852925
H      -2.430287   -2.867808    1.967275
H      -4.164778   -0.597043    2.081191
H      -2.527228   -0.612460    2.758314
H      -2.607396    1.240305    0.970305
H      -2.179561   -1.018567   -2.021890
