17

C      -0.023094   -1.200876   -0.117922
C       0.037599   -0.003144   -0.024425
C       0.053888    1.408472    0.140308
O       0.241198    2.259057   -1.015110
C       1.140284    2.418853    0.078498
C       0.449956    3.303245    1.131179
C      -0.680335    2.245791    1.181934
C      -2.159939    2.412134    1.328194
C      -1.359514    1.707724    2.403097
H      -0.061951   -2.257862   -0.214175
H       2.197967    2.285548   -0.116997
H       1.008355    3.373875    2.068451
H       0.181650    4.302441    0.779423
H      -2.535844    3.407344    1.541691
H      -2.807187    1.814563    0.695073
H      -1.459567    0.630340    2.487710
H      -1.196536    2.220759    3.345356
