16

O      -0.007599    1.445041    0.058233
C       0.014794    0.037755    0.065526
C      -1.385900   -0.540922   -0.050763
C      -1.579475   -1.260353   -1.333182
C      -0.124631   -1.703491   -1.663775
C      -0.299498   -2.667992   -0.456117
N      -1.589680   -2.018056   -0.034797
C       0.684510   -0.503493   -1.219081
O       1.592830    0.054903   -1.778170
H       0.754515    1.719948   -0.471302
H       0.543977   -0.339402    0.956086
H      -2.200857    0.001300    0.412836
H      -2.427072   -1.200492   -2.004341
H       0.139090   -2.109909   -2.636733
H      -0.524122   -3.685429   -0.780252
H       0.486574   -2.700325    0.305449
