18

C      -0.256042    1.549824    0.166337
C       0.020331    0.055776    0.062555
O       1.153167   -0.227061   -0.792933
C       1.864470   -0.926207    0.260086
C       0.736664   -0.637662    1.241041
C       0.807214   -0.193036    2.668577
C       0.160698   -1.511001    2.306668
C      -1.180750   -0.667293   -0.397864
N      -2.132142   -1.235196   -0.726963
H       0.637699    2.058876    0.533879
H      -0.515064    1.950046   -0.817495
H      -1.088724    1.745681    0.848680
H       2.018879   -1.982863    0.011063
H       2.831246   -0.455157    0.472886
H       1.778621   -0.208592    3.152694
H       0.164556    0.621345    2.986606
H      -0.920071   -1.587751    2.367451
H       0.688127   -2.428826    2.545461
