15

O       0.326722    1.103571   -0.611863
C       0.086369   -0.117747    0.044293
C      -0.077067   -0.135087    1.588352
C      -1.316670   -1.048260    1.398509
C      -1.374256   -0.632794   -0.112010
C      -2.372375    0.472185   -0.354988
O      -3.198259    0.457005   -1.231053
H       1.250298    1.345199   -0.490163
H       0.790385   -0.894590   -0.284877
H       0.754302   -0.515628    2.186299
H      -0.352743    0.858549    1.952555
H      -1.085676   -2.109564    1.508270
H      -2.199508   -0.821594    2.000378
H      -1.542753   -1.418800   -0.849427
H      -2.319249    1.319729    0.364722
