15

N      -0.155741    1.304836   -0.549391
C      -0.052242   -0.035223   -0.165631
C      -1.029833   -0.971979    0.015702
C      -2.518742   -0.978699   -0.156092
C      -2.976117   -0.136140   -1.259427
C      -3.350778    0.567215   -2.159383
O      -0.480200   -2.120395    0.483964
N       0.885030   -1.957557    0.612953
C       1.128733   -0.727582    0.232362
H       0.645238    1.622175   -1.079808
H      -1.005949    1.492258   -1.067694
H      -2.838309   -2.014086   -0.325232
H      -3.014459   -0.658070    0.771879
H      -3.701291    1.168288   -2.962021
H       2.145488   -0.359298    0.248537
