18

O      -0.123172   -0.068617   -0.350119
C       0.024120    1.094226   -0.069408
C       1.330100    1.843330   -0.168018
C       1.312352    2.961078   -1.241668
C       0.275538    4.055891   -1.023819
C       0.817430    5.274724   -0.980277
C       2.302059    5.195623   -1.109517
N       2.926404    4.433573    0.012408
C       2.624215    3.752846   -1.263631
H      -0.837706    1.701667    0.292454
H       1.544228    2.317922    0.797458
H       2.119622    1.120199   -0.393380
H       1.155359    2.486610   -2.220507
H      -0.780549    3.842175   -0.906134
H       0.278055    6.203926   -0.842148
H       2.875034    5.983293   -1.586386
H       3.923717    4.640478    0.034490
H       3.447623    3.402720   -1.876654
