18

C       0.712679   -0.512225   -1.432676
C      -0.030607   -0.064114   -0.167740
C       0.640401   -0.552915    1.104993
O       1.900275    0.042076    1.178211
C      -0.121617   -0.661249    2.475273
C      -0.888107   -1.905080    1.983592
C       0.589191   -2.055316    1.572282
O       0.969362   -1.572271    2.933206
H       0.709214   -1.603517   -1.529898
H       0.240847   -0.097498   -2.328214
H       1.752742   -0.180058   -1.404541
H      -0.048203    1.031106   -0.121791
H      -1.071543   -0.393692   -0.208403
H       2.287293   -0.306785    1.995441
H      -0.430880    0.123405    3.167348
H      -1.191097   -2.578411    2.784853
H      -1.651737   -1.797480    1.213231
H       1.123830   -2.927636    1.193922
