20

C      -0.113940    1.541960    0.068180
C       0.025609    0.030724   -0.038800
C       1.195394   -0.562472   -0.912221
C       1.710021   -1.273592    0.341777
O       1.977861   -0.253036    1.320217
C       0.625700   -0.718355    1.176105
C      -0.068667   -1.198340    2.394432
C       0.707200   -1.709909    3.549804
N       0.019321   -0.410701    3.644220
H       0.828496    1.987949    0.398722
H      -0.378701    1.982274   -0.898878
H      -0.894483    1.818023    0.785429
H      -0.924831   -0.430080   -0.328124
H       0.844534   -1.243512   -1.690906
H       1.891499    0.160929   -1.344553
H       2.269309   -2.197547    0.436842
H      -1.061513   -1.602679    2.209741
H       0.287802   -2.496941    4.169733
H       1.788838   -1.710993    3.459767
H       0.709997    0.325705    3.509347
