24

C      -0.007603    1.512457    0.087337
C      -0.077018   -0.003633   -0.109984
C       0.834292   -0.488547   -1.230605
O       0.702865   -1.889802   -1.341220
C       1.391751   -2.488818   -2.433483
C       2.890917   -2.623783   -2.150275
C       0.731966   -3.847262   -2.682122
C      -0.743985   -3.744361   -3.072004
H       1.007579    1.836826    0.341866
H      -0.307585    2.047842   -0.820439
H      -0.670172    1.834860    0.895739
H       0.204233   -0.520888    0.814545
H      -1.103616   -0.311748   -0.339238
H       0.558686   -0.003186   -2.183363
H       1.876100   -0.199412   -1.014590
H       1.251913   -1.858171   -3.329659
H       3.402635   -3.084147   -3.001591
H       3.358081   -1.651501   -1.969907
H       3.054504   -3.250699   -1.267723
H       1.295606   -4.366573   -3.466540
H       0.836891   -4.447114   -1.769316
H      -1.306809   -3.216941   -2.298182
H      -0.867740   -3.194738   -4.012273
H      -1.187682   -4.735612   -3.206061
