17

C       0.228082    1.377216   -0.020633
N      -0.002448   -0.051029   -0.030209
C       0.571720   -0.981159   -0.833448
C       0.105207   -2.214302   -0.425132
C       0.422524   -3.572514   -0.998698
C       1.374462   -3.538685   -2.104952
C       2.157576   -3.504504   -3.015868
C      -0.755501   -1.910402    0.652726
N      -0.815845   -0.602591    0.890434
H       0.960025    1.655963    0.744891
H       0.598172    1.688534   -0.999380
H      -0.713817    1.885967    0.190494
H       1.253801   -0.712677   -1.623888
H       0.819019   -4.226344   -0.209648
H      -0.501340   -4.058831   -1.341536
H       2.849283   -3.487600   -3.821180
H      -1.337841   -2.591013    1.257947
