16

O       0.002542    1.444209   -0.031623
C       0.053516    0.058576   -0.029224
C      -1.243676   -0.653535    0.169269
C      -2.533665    0.126339    0.376165
C      -3.715785   -0.673611    0.074803
C      -4.676418   -1.352463   -0.169284
C      -0.566026   -0.714326   -1.202498
C      -1.075193    0.043905   -2.306424
N      -1.450084    0.673817   -3.202087
H       0.544461    1.781056   -0.754143
H       0.953054   -0.377595    0.404156
H      -1.195698   -1.588887    0.717425
H      -2.571944    0.465464    1.419121
H      -2.521646    1.032347   -0.236481
H      -5.534645   -1.935907   -0.393873
H      -0.100741   -1.653275   -1.482645
