17

C       0.073807    1.558085    0.034330
N      -0.169417    0.122609   -0.105973
C       0.613305   -0.499908   -1.159988
C       2.118812   -0.648767   -0.838121
O       2.585992   -0.423087    0.245967
C       0.142632   -1.846806   -1.495027
C      -0.173495   -2.982850   -1.740106
C      -0.591328   -4.343222   -2.044421
H       1.123907    1.829933    0.217173
H      -0.262651    2.070958   -0.874182
H      -0.526753    1.936350    0.866041
H       0.050667   -0.344727    0.768213
H       0.542822    0.132936   -2.058690
H       2.740066   -1.017842   -1.684097
H      -0.493842   -4.557675   -3.114180
H       0.012171   -5.077730   -1.500266
H      -1.639228   -4.502394   -1.768000
