18

C      -0.058151    1.605376   -0.191127
C       0.028326    0.094488   -0.009678
O      -1.276277   -0.362935    0.304100
C       0.581113   -0.586118   -1.273546
C       0.766267   -2.086984   -1.173590
N       0.273147   -2.701718   -0.156719
O       0.507564   -4.068123   -0.178341
C       1.478165   -2.737630   -2.223027
C       2.086724   -3.223922   -3.140712
H       0.927581    2.037371   -0.388140
H      -0.722952    1.852588   -1.025136
H      -0.465915    2.062959    0.713793
H       0.718151   -0.126236    0.821433
H      -1.188741   -1.312292    0.460915
H      -0.089658   -0.378100   -2.118049
H       1.551589   -0.147828   -1.536987
H       0.091913   -4.367665    0.638151
H       2.622098   -3.672278   -3.941402
