20

C      -0.162328    1.580546   -0.089149
C       0.011928    0.083911    0.074366
C       1.345859   -0.586695   -0.162664
C       0.747942   -0.578664    1.222548
C       1.408381    0.143127    2.365178
O       2.161405    1.284699    2.031788
C       0.747977    0.135836    3.723571
C       2.006654   -0.672823    3.476137
H       0.778990    2.117235    0.050942
H      -0.515448    1.814318   -1.099683
H      -0.900657    1.984485    0.614214
H      -0.853544   -0.481441   -0.264310
H       1.386860   -1.518613   -0.716101
H       2.195817    0.069997   -0.315509
H       0.305676   -1.517058    1.548178
H       1.556840    2.032261    1.989446
H       0.845705    1.031785    4.327333
H      -0.194438   -0.389113    3.838484
H       1.929522   -1.753364    3.425816
H       2.929495   -0.297680    3.902458
