24

C       0.057200    1.571807   -0.018454
C      -0.039218    0.044069    0.047947
C      -1.468828   -0.523794   -0.041136
C      -2.134700   -0.204976   -1.387186
C      -1.453090   -2.038117    0.252044
C      -2.818871   -2.681009    0.390156
C      -3.504340   -3.343111   -0.781012
C      -2.957772   -4.182209    0.346987
H       1.089912    1.904159    0.127863
H      -0.277590    1.964380   -0.983286
H      -0.554793    2.040428    0.760850
H       0.569288   -0.396145   -0.754808
H       0.412065   -0.296537    0.988854
H      -2.063680   -0.043457    0.751579
H      -1.567059   -0.647124   -2.215656
H      -3.151241   -0.603705   -1.431713
H      -2.193789    0.872782   -1.563872
H      -0.888863   -2.555237   -0.537788
H      -0.890436   -2.203596    1.181412
H      -3.477766   -2.173087    1.091650
H      -4.580475   -3.246916   -0.877939
H      -2.976019   -3.364973   -1.728574
H      -2.062490   -4.765355    0.155682
H      -3.659334   -4.658480    1.023069
