23

C      -2.236445    1.614198   -1.256650
C      -2.308109    0.087345   -1.178341
C      -1.558803   -0.485885    0.032933
C      -1.522171   -2.015287    0.054881
O      -0.789338   -2.473535   -1.072604
C      -1.288216   -2.783543    1.408863
C      -2.756826   -2.432442    1.787991
C      -2.810126   -2.862528    0.293224
C      -1.873218   -4.044083    0.701789
H      -2.782822    1.994944   -2.125272
H      -2.666537    2.080699   -0.362982
H      -1.199322    1.959116   -1.339507
H      -3.358036   -0.228870   -1.131110
H      -1.897407   -0.356633   -2.091217
H      -0.516741   -0.128440    0.015815
H      -1.987191   -0.080764    0.953691
H       0.057444   -2.015458   -1.080013
H      -0.409283   -2.732435    2.055507
H      -3.233901   -3.124683    2.485282
H      -3.002531   -1.401402    2.042789
H      -3.689086   -2.909721   -0.351757
H      -1.274019   -4.494408   -0.085392
H      -2.319351   -4.791392    1.362593
