17

O      -0.111883    1.454007   -0.152136
C       0.002959    0.052602   -0.049742
C      -1.352222   -0.635844   -0.034851
C      -1.322307   -2.166149    0.102080
C      -2.598708   -2.439211    0.895812
O      -2.557644   -3.591627    1.690474
C      -2.722376   -1.174337    1.744662
O      -3.293093   -1.085166    2.795334
O      -2.062930   -0.158899    1.148691
H      -0.625172    1.751846    0.607585
H       0.565927   -0.286352   -0.926218
H       0.563208   -0.251858    0.848753
H      -1.933169   -0.313008   -0.906329
H      -1.283308   -2.669446   -0.864792
H      -0.461953   -2.485484    0.700556
H      -3.467064   -2.454275    0.213001
H      -3.053213   -3.381699    2.494984
