15

O       0.094139    1.284292    0.103878
C       0.141058   -0.059796    0.046865
N       0.021754   -0.710896   -1.106601
N      -0.062021   -2.012078   -0.689393
C       0.598188   -3.278177   -1.048898
C       1.978543   -3.364388   -0.456254
C       0.762242   -3.542026    0.447190
C       0.182997   -2.158630    0.649001
C       0.299227   -0.902429    1.193966
H      -0.024723    1.599439   -0.801484
H       0.212256   -3.911099   -1.836646
H       2.535977   -4.268371   -0.689536
H       2.581422   -2.466553   -0.367031
H       0.552363   -4.448942    0.995657
H       0.460419   -0.588460    2.210953
