16

C      -0.016298    1.500394   -0.078564
C       0.006074    0.010592    0.042797
N       0.000682   -0.748866   -1.048955
N       0.025243   -2.054087   -0.617786
C       0.045347   -2.096283    0.733569
C       0.034395   -0.793451    1.219962
C       0.056630   -0.900741    2.651974
C       0.079408   -2.238305    2.947197
N       0.072576   -2.988931    1.763371
H       0.866258    1.951895    0.388953
H      -0.036160    1.788293   -1.131701
H      -0.896448    1.927572    0.415579
H       0.024740   -2.791014   -1.298236
H       0.056175   -0.104182    3.379517
H       0.100229   -2.745457    3.898680
H       0.085954   -3.990835    1.709795
