16

C      -0.075052    1.436347    0.023789
C       0.002864   -0.059393    0.015500
O      -1.154489   -0.710371   -0.447760
C      -0.785833   -2.053156   -0.339899
C       0.694849   -2.261101   -0.593331
C       0.144801   -2.297695    0.832279
C       0.702616   -0.884455    1.084445
C       1.253211   -0.847895   -0.342195
H       0.860813    1.862532    0.395111
H      -0.251359    1.821285   -0.985308
H      -0.888921    1.778962    0.670142
H      -1.545018   -2.757812   -0.650894
H       1.121080   -3.040498   -1.209098
H       0.060726   -3.111048    1.539166
H       1.104304   -0.488376    2.006972
H       2.163413   -0.418065   -0.737248
