20

C      -0.245055    1.536461   -0.010932
C       0.122352    0.042093    0.023041
C       0.842319   -0.421434   -1.205892
C       2.086992   -0.900997   -1.299651
C       2.383520   -1.369801   -2.686380
N       1.484366   -2.492034   -3.111366
C       1.174832   -1.092818   -3.489897
C       0.114424   -0.501903   -2.555916
O      -1.055351   -1.302537   -2.481653
H       0.650315    2.159777   -0.101160
H      -0.902069    1.767117   -0.855178
H      -0.769484    1.825568    0.904837
H       0.732389   -0.168182    0.908430
H      -0.799154   -0.545857    0.119974
H       2.785230   -1.004026   -0.476256
H       3.384442   -1.330467   -3.101900
H       1.893411   -2.960932   -3.918110
H       1.206980   -0.809891   -4.535606
H      -0.220603    0.482501   -2.902038
H      -0.723700   -2.208956   -2.402644
