20

C      -0.207431    1.609422    0.106089
C      -0.029699    0.088951   -0.017852
C      -1.388892   -0.610551    0.065889
C       0.661163   -0.303091   -1.339495
N       1.988056    0.222359   -1.624556
C       2.952807    0.143137   -0.817752
O       3.003413   -0.301180    0.470803
C       1.952511    0.064994    1.369634
O       0.710044   -0.468872    1.091467
H       0.714063    2.162598   -0.087783
H      -0.945641    1.946383   -0.627336
H      -0.574164    1.870170    1.103411
H      -2.027127   -0.323647   -0.774396
H      -1.257969   -1.695899    0.053933
H      -1.896203   -0.338685    0.995527
H       0.720895   -1.399939   -1.363764
H       0.006949   -0.001561   -2.164868
H       3.954103    0.413880   -1.155217
H       2.263584   -0.349864    2.329815
H       1.927315    1.161107    1.421500
