17

N      -0.000526    1.342736   -0.193236
C      -0.022703    0.091593   -0.032415
C      -1.297926   -0.701416    0.077910
C      -1.222855   -1.763248    1.188425
N      -0.966006   -1.148134    2.487283
C       0.217928   -1.010702    2.889132
O       1.371623   -1.438757    2.252866
C       1.877960   -0.632699    1.208327
O       1.115296   -0.710168    0.027091
H       0.959168    1.684533   -0.281335
H      -2.118240   -0.000637    0.244031
H      -1.479849   -1.214390   -0.874958
H      -2.187324   -2.275148    1.247703
H      -0.451427   -2.496685    0.928854
H       0.419595   -0.569428    3.865917
H       1.955535    0.411938    1.539873
H       2.859846   -1.042579    0.971751
