20

C      -0.381657    1.340013    0.156525
O       0.244189    0.105794   -0.115127
C       0.855617   -0.466016    1.009756
C      -0.091985   -1.244796    1.969635
N       0.310524   -2.499367    1.303506
C       0.523736   -3.685141    2.093943
C       0.679134   -4.916163    1.213298
O       1.387479   -5.853631    1.470696
C       1.468594   -1.837276    0.664189
H       0.336179    2.081164    0.542115
H      -0.797410    1.705737   -0.785017
H      -1.198584    1.240169    0.886890
H       1.523672    0.257194    1.495938
H       0.230114   -1.174989    3.020312
H      -1.161843   -1.017915    1.904853
H       1.385231   -3.631546    2.784849
H      -0.374582   -3.858401    2.705873
H       0.054262   -4.879560    0.292603
H       1.589792   -2.043066   -0.403524
H       2.421988   -2.017966    1.184482
