17

O      -0.103456    1.406826   -0.014247
C       0.042387    0.024662   -0.003701
C       0.916318   -0.781361   -1.010393
C       0.734361   -1.919283    0.029558
C      -0.779457   -2.171057    0.073400
C      -1.291468   -1.515041    1.339726
O      -0.209831   -1.120986    2.146557
C       0.722608   -0.811217    1.148663
C      -1.289719   -0.731634    0.046104
H       0.771933    1.806496   -0.004596
H       0.525059   -0.936982   -2.018227
H       1.948698   -0.416970   -1.057304
H       1.401302   -2.777524    0.073264
H      -1.268493   -3.004500   -0.411303
H      -2.176876   -1.817358    1.881968
H       1.669359   -0.471173    1.563055
H      -2.174966   -0.383728   -0.467106
