19

C       0.029029    1.561866    0.050356
C       0.029824    0.032491    0.020394
C       0.592768   -0.565125    1.319091
N      -1.328463   -0.427726   -0.282315
C      -1.576970   -1.745383   -0.597205
N      -2.728874   -2.304357   -0.275543
O      -2.683223   -3.595325   -0.822642
C      -1.504360   -3.763831   -1.426254
C      -0.741491   -2.648137   -1.332262
H       1.038903    1.945749    0.219610
H      -0.349579    1.969099   -0.890585
H      -0.606359    1.933147    0.863637
H       0.662548   -0.290044   -0.815431
H       0.577931   -1.658309    1.286342
H       1.626101   -0.241982    1.483108
H      -0.003243   -0.244145    2.180992
H      -2.035735   -0.049537    0.336337
H      -1.343037   -4.727176   -1.886350
H       0.244990   -2.484463   -1.730316
