21

C      -0.160668    1.557246    0.078170
C       0.031408    0.027228    0.025664
C       0.652719   -0.458530   -1.306331
C      -0.237627   -0.230382   -2.535392
C       0.380369   -0.800922   -3.788983
C       0.223614   -0.170973   -5.105073
O       1.445699   -0.046091   -4.375703
C       0.844890   -0.423431    1.154719
C       1.531613   -0.783857    2.073538
H       0.797692    2.068807   -0.053838
H      -0.843698    1.895349   -0.705857
H      -0.575193    1.859795    1.043086
H      -0.959645   -0.440801    0.120674
H       1.616365    0.041330   -1.456640
H       0.869522   -1.529090   -1.213780
H      -1.217647   -0.702500   -2.378211
H      -0.415880    0.838506   -2.692966
H       0.571002   -1.876385   -3.765736
H       0.276418   -0.776769   -6.008813
H      -0.362287    0.743307   -5.194814
H       2.129745   -1.107394    2.888930
