16

O       0.031672    0.024626    0.011347
C       0.038639    1.239514   -0.005759
N      -0.984738    2.119044    0.305226
C      -0.582272    3.453893    0.152498
C       0.706414    3.429232   -0.256823
N       1.089778    2.092382   -0.341104
N       1.594050    4.433685   -0.646189
C       1.433705    5.752080   -0.046198
C       2.594272    4.901018    0.331002
H      -1.895205    1.795717    0.577231
H      -1.248699    4.281310    0.315422
H       1.970696    1.755477   -0.687241
H       1.559976    6.588240   -0.726332
H       0.654337    5.874794    0.701862
H       2.577450    4.449423    1.319408
H       3.578618    5.098841   -0.080505
