18

C      -0.222145    1.315632    0.058443
O      -0.159677   -0.109942    0.207713
C       0.748422   -0.559049    1.085165
O       1.498861    0.145161    1.710892
C       0.750564   -2.105378    1.154569
N       1.804325   -2.635491    2.017614
C      -0.563653   -2.597998    1.562627
C      -1.636633   -2.995928    1.934212
C      -2.935586   -3.486543    2.370653
H       0.740260    1.709401   -0.277805
H      -0.994272    1.501957   -0.687681
H      -0.484393    1.789261    1.007710
H       0.946071   -2.442047    0.125487
H       2.650126   -2.095091    1.849835
H       1.552701   -2.443823    2.983636
H      -2.937219   -4.578280    2.460291
H      -3.211145   -3.071912    3.346438
H      -3.720943   -3.210220    1.658704
