14

C      -0.062112    1.541898    0.109091
C       0.015606    0.018964   -0.023701
C       0.721154   -0.435437   -1.259548
N       1.226676    0.353203   -2.149657
O       1.790699   -0.498465   -3.135752
C       1.599740   -1.811021   -2.795449
O       1.961905   -2.761203   -3.426944
N       0.912634   -1.753051   -1.590307
H       0.936257    1.984156    0.136878
H      -0.595509    1.982130   -0.736362
H      -0.587187    1.808524    1.029491
H       0.529915   -0.416015    0.843520
H      -0.991826   -0.417931   -0.024572
H       0.622883   -2.568072   -1.078355
