17

O       0.078883   -0.042261    0.096459
C       0.003419    1.159505    0.062140
C      -1.290226    1.953034    0.039155
C      -1.378713    2.923780    1.238441
C      -0.082070    3.688080    1.519031
C       0.988849    3.055043    2.343765
C       1.228157    3.270819    0.849632
C       1.258346    2.064609   -0.014033
O       2.154471    1.805324   -0.782849
H      -1.290879    2.539395   -0.890285
H      -2.137912    1.264117    0.010285
H      -2.185659    3.637028    1.047878
H      -1.669640    2.361931    2.132630
H      -0.195710    4.760987    1.634555
H       1.576802    3.665535    3.018811
H       0.833271    2.035209    2.683497
H       1.948117    4.033301    0.573884
