17

O      -0.206265    1.299166    0.068403
C      -0.154945   -0.080896    0.137191
C      -0.781274   -0.844386    1.233373
C      -1.461209   -0.905403   -0.137419
C      -2.740748   -0.116764   -0.391327
C      -3.779194   -0.414107    0.670804
O      -3.922991    0.249381    1.667478
C      -1.225402   -2.138337   -0.921576
O      -0.311750   -2.906136   -0.721703
H      -0.471907    1.651087    0.923840
H       0.728251   -0.493913   -0.340228
H      -0.298548   -1.760560    1.555817
H      -1.320897   -0.294275    1.999277
H      -2.519264    0.954358   -0.379280
H      -3.134126   -0.383003   -1.379866
H      -4.389450   -1.330332    0.503018
H      -1.943681   -2.306041   -1.755805
