15

O      -0.026669    0.051984   -0.049139
C       0.038614    1.241519   -0.008891
O      -1.061890    2.075983    0.001744
C      -0.447249    3.372043    0.055114
C       0.753403    3.343796   -0.958801
C       1.564630    4.561978   -0.540489
C       1.543007    4.517159    0.793922
C       0.720008    3.274529    1.103103
C       1.208319    2.207431    0.042766
H      -1.197682    4.160633    0.069489
H       0.589488    3.127891   -2.013896
H       2.000908    5.292141   -1.206283
H       1.956722    5.200538    1.520966
H       0.522303    2.988496    2.135482
H       2.211158    1.786688    0.044912
