18

C      -0.818056   -0.889911   -0.959891
C      -0.382238    0.106767   -0.445938
C       0.157032    1.289990    0.189566
C       0.069290    1.409295    1.751081
C       1.507231    1.940469    1.739739
C       1.941084    3.281713    2.257697
C       2.492355    2.008101    2.863208
C       1.714408    1.434872    0.307451
H      -1.206065   -1.765333   -1.418287
H      -0.263760    2.187673   -0.274023
H      -0.713274    2.062542    2.145110
H      -0.015551    0.425126    2.220499
H       2.602829    3.881318    1.640120
H       1.232569    3.859898    2.842974
H       2.156449    1.727822    3.856793
H       3.525774    1.749037    2.654526
H       2.208076    0.459695    0.269241
H       2.195101    2.107764   -0.407071
