25

C       0.040848    1.605476    0.158151
C       0.014704    0.091786   -0.083270
C      -1.398333   -0.516568   -0.106907
C      -2.207684   -0.124165   -1.354577
C      -3.673937   -0.560880   -1.224369
C      -3.800236   -1.954551   -0.668681
C      -2.790643   -2.614290   -0.102392
C      -1.396065   -2.057853    0.066371
C      -0.408631   -2.808166   -0.851957
H       1.069103    1.979112    0.193657
H      -0.479067    2.156235   -0.631930
H      -0.438611    1.861283    1.109796
H       0.531232   -0.134417   -1.024686
H       0.597731   -0.399231    0.707409
H      -1.937518   -0.115857    0.765156
H      -2.157683    0.955875   -1.525684
H      -1.763148   -0.598056   -2.239285
H      -4.218992    0.141095   -0.574840
H      -4.176852   -0.501802   -2.198329
H      -4.777904   -2.426510   -0.740464
H      -2.948256   -3.629239    0.258762
H      -1.079170   -2.265533    1.099485
H      -0.612980   -2.608646   -1.908613
H       0.628919   -2.530982   -0.644727
H      -0.498940   -3.889331   -0.703014
