19

C       0.269755    1.421966   -0.120926
C      -0.029076   -0.057033   -0.065067
C      -0.377640   -0.788598   -1.380451
C      -0.645450   -2.182123   -0.832099
C      -0.798550   -2.122976    0.505813
C       0.445624   -2.396569    1.351366
C       0.569142   -0.823758    1.236341
O       1.290558   -0.091459    2.167630
C      -0.892833   -0.664068    0.992924
H       1.154460    1.621053   -0.738382
H      -0.569133    1.966560   -0.570654
H       0.455248    1.832475    0.873549
H      -1.204656   -0.274064   -1.894117
H       0.451081   -0.840106   -2.099604
H      -0.237940   -3.057104   -1.331335
H       0.293399   -2.634577    2.410788
H       1.211555   -3.047229    0.918137
H       2.216741   -0.094878    1.900642
H      -1.662090   -0.212954    1.607818
