16

N      -0.040587    1.291403    0.317980
C       0.063323    0.016241   -0.152505
O       1.080240   -0.458174   -0.619762
C      -1.229469   -0.765891   -0.063777
O      -2.380911   -0.025019    0.246512
C      -1.356358   -2.000871   -0.909436
C      -1.201533   -2.146707    0.593505
C      -0.027600   -2.706023    1.192144
C       0.926211   -3.204999    1.726724
H       0.808502    1.822911    0.417756
H      -0.859578    1.559491    0.837558
H      -2.693258    0.390302   -0.566020
H      -2.332343   -2.220428   -1.326737
H      -0.492946   -2.242754   -1.516694
H      -2.128664   -2.342922    1.124881
H       1.784653   -3.632107    2.182278
