20

C      -0.151660    1.509661   -0.011636
C       0.091428    0.033199   -0.024173
C       0.325012   -0.842999   -1.193651
C       1.496314   -1.708777   -0.926884
C       1.777011   -1.678812    0.382628
C       0.725872   -0.869121    1.102923
C       1.066781   -0.310028    2.467721
C      -0.603109   -1.694207    0.923737
N      -0.954820   -0.991506   -0.336166
H       0.790327    2.066019   -0.074350
H      -0.776044    1.792012   -0.864675
H      -0.669543    1.824100    0.901171
H       0.063447   -0.519766   -2.194246
H       1.989143   -2.304241   -1.684804
H       2.516762   -2.278895    0.900694
H       1.909709    0.387686    2.414281
H       0.216763    0.221237    2.908550
H       1.346772   -1.113581    3.158353
H      -0.522345   -2.784811    0.864259
H      -1.351824   -1.413461    1.670256
