14

C      -0.007963    1.558245    0.006781
C       0.055732    0.023313   -0.014995
C       0.695500   -0.497473   -1.218874
C       1.204851   -0.900060   -2.227830
N       0.740221   -0.475290    1.194280
N       1.981236   -0.173310    1.535721
N       2.183372   -0.795840    2.656992
N       1.065901   -1.470694    2.991925
N       0.163697   -1.272625    2.080734
H       0.997996    1.980171   -0.021739
H      -0.561634    1.904155   -0.868454
H      -0.518264    1.899991    0.910616
H      -0.952386   -0.392268    0.074675
H       1.660343   -1.264972   -3.115966
