25

C       0.068620    1.523200    0.236253
C       0.030734    0.004521    0.046933
C       0.695225   -0.457590   -1.255206
C       0.645240   -1.978706   -1.446256
C       1.409858   -2.512945   -2.664688
C       0.888087   -1.965155   -3.990847
C       2.955217   -2.490405   -2.505623
O       3.021236   -3.926509   -2.415554
C       1.602728   -4.053121   -2.632632
H       1.099573    1.893916    0.259445
H      -0.447646    2.037648   -0.582042
H      -0.412831    1.821705    1.172713
H       0.523844   -0.484239    0.897550
H      -1.011367   -0.341616    0.062929
H       0.207559    0.043675   -2.100741
H       1.741133   -0.119231   -1.263889
H       1.050074   -2.462312   -0.546844
H      -0.403517   -2.301191   -1.517277
H       1.021408   -0.880976   -4.061161
H       1.417312   -2.417955   -4.835525
H      -0.180527   -2.178018   -4.112400
H       3.509341   -2.107696   -3.373347
H       3.339088   -2.005178   -1.598886
H       1.105552   -4.580769   -1.808161
H       1.375795   -4.571889   -3.574044
