21

C       0.051168    1.553094   -0.019179
C      -0.022845    0.021247    0.000258
C      -1.492318   -0.434286    0.047304
C       0.685370   -0.632477   -1.215953
C       1.262837   -1.959890   -0.698361
O       1.455774   -2.950590   -1.359050
C       1.468698   -1.826064    0.775232
C       2.205697   -0.563011    1.212207
C       0.714560   -0.579182    1.211983
H       1.088480    1.902726   -0.025856
H      -0.447297    1.959185   -0.906125
H      -0.439634    1.980373    0.862483
H      -2.045728   -0.058041   -0.819443
H      -1.571381   -1.526732    0.047892
H      -1.989008   -0.061638    0.949878
H       0.020004   -0.816319   -2.062155
H       1.509226   -0.011279   -1.588329
H       1.558708   -2.725174    1.371148
H       2.710118   -0.626287    2.169788
H       2.745358    0.011696    0.466931
H       0.199306   -0.565208    2.167106
