18

C       0.019343    1.552789    0.011089
C      -0.006818    0.024052   -0.035586
C       0.696587   -0.567780   -1.274226
C       0.728382   -2.037054   -1.175554
N       0.767504   -3.187998   -1.084857
N       0.004487   -0.190632   -2.509761
C       0.562811    0.945474   -3.245584
C       0.728932   -0.439655   -3.756126
H       1.045204    1.937701   -0.010287
H      -0.526369    1.989272   -0.829110
H      -0.447724    1.909695    0.933453
H       0.480971   -0.386648    0.855148
H      -1.039400   -0.338592   -0.032458
H       1.750576   -0.230656   -1.280127
H      -0.166744    1.617189   -3.687626
H       1.445030    1.435369   -2.837607
H       1.721461   -0.881091   -3.690363
H       0.122700   -0.805529   -4.578544
