21

C      -0.169579    1.555323   -0.135163
C      -0.018497    0.028735   -0.014323
C      -1.378825   -0.653512    0.183034
C       0.751674   -0.517840   -1.188570
N       0.190636   -0.746623   -2.540865
C       0.855418   -1.859380   -1.808589
C       2.401764   -1.692840   -1.943011
N       2.687405   -0.495779   -2.770958
C       2.309335   -0.344364   -1.344993
H       0.803196    2.043430   -0.249664
H      -0.775125    1.816713   -1.009404
H      -0.655193    1.971931    0.753183
H       0.587630   -0.178913    0.880202
H      -2.067789   -0.428199   -0.639121
H      -1.276763   -1.740846    0.256619
H      -1.851686   -0.298197    1.103582
H      -0.811747   -0.894731   -2.417857
H       0.333842   -2.782131   -1.588421
H       3.134363   -2.475421   -1.795600
H       3.704694   -0.411815   -2.803601
H       2.954709    0.149953   -0.629522
