16

C      -0.014325    1.544114    0.005350
C       0.008431    0.003651    0.024533
C       0.734449   -0.537177    1.269778
O      -1.317912   -0.493389   -0.017979
C       0.681385   -0.542610   -1.262505
N       1.994939   -0.179045   -1.420675
O       0.113146   -1.257088   -2.055577
H       0.987067    1.985790    0.023025
H      -0.537908    1.901697   -0.884974
H      -0.546463    1.915142    0.889073
H       0.235433   -0.175800    2.176902
H       0.705458   -1.629725    1.272395
H       1.779493   -0.218164    1.316810
H      -1.759851   -0.192554    0.783017
H       2.426886    0.540211   -0.868755
H       2.431339   -0.428634   -2.293420
