23

C      -0.073656    1.667562    0.064955
C       0.056064    0.150960    0.053470
C       1.130635   -0.585236   -0.785727
C       2.443020    0.033859   -0.197028
C       2.114806    0.042673    1.354298
C       0.756717   -0.637861    1.234503
C      -0.176390   -1.536799    2.064330
C      -0.307396   -2.448483    0.786723
C       0.984859   -1.773016    0.199095
H       0.871958    2.183959    0.248367
H      -0.460768    2.025599   -0.896059
H      -0.779328    1.989243    0.839609
H      -0.930941   -0.273333   -0.137549
H       1.086337   -0.657959   -1.875873
H       3.317200   -0.583354   -0.423794
H       2.635724    1.034640   -0.591893
H       2.829544   -0.553102    1.929244
H       2.101644    1.052088    1.776306
H       0.346767   -2.057992    2.872656
H      -1.088542   -1.089078    2.470238
H      -0.192009   -3.519137    0.966533
H      -1.230603   -2.301655    0.223864
H       1.864236   -2.414253    0.311790
