22

C       0.502023   -0.706293    1.945735
C       0.171501   -0.014910    0.622659
O       0.987714   -0.520988   -0.435122
C      -1.281376   -0.177159    0.099760
C      -1.638489   -1.640879   -0.153654
O      -2.747304   -2.102978   -0.040016
N      -2.253257    0.622493    0.829715
C      -3.264486    1.237638   -0.020177
C      -2.859505    0.028961    2.020023
H       1.573336   -0.604627    2.159082
H      -0.032828   -0.247404    2.780343
H       0.265570   -1.774822    1.917479
H       0.327238    1.066928    0.742317
H       1.898063   -0.551114   -0.124985
H      -1.213902    0.241740   -0.915559
H      -0.783794   -2.264630   -0.492448
H      -3.971566    0.512317   -0.456084
H      -3.842508    1.956337    0.571263
H      -2.785292    1.788692   -0.835786
H      -2.107865   -0.485308    2.620747
H      -3.282372    0.831451    2.635593
H      -3.655302   -0.692863    1.790778
