20

C      -0.077298    1.537603   -0.051116
C      -0.041487    0.029580    0.001169
C       1.269133   -0.708747   -0.228463
C       0.610067   -0.731972    1.130702
O       1.182825   -0.030525    2.192933
C      -0.249062   -1.958411    1.446008
N      -1.367620   -1.982323    0.472920
C      -2.318829   -0.877373    0.665855
C      -1.262609   -0.766690   -0.369774
H       0.803603    1.958007    0.441418
H      -0.100092    1.900428   -1.084640
H      -0.964353    1.926479    0.460140
H       1.273943   -1.615041   -0.827428
H       2.154843   -0.088671   -0.324705
H       2.021517   -0.449184    2.413005
H       0.311473   -2.895965    1.348147
H      -0.624813   -1.896392    2.473159
H      -3.343633   -1.103819    0.385734
H      -2.212785   -0.261306    1.557337
H      -1.508729   -0.895749   -1.421753
