20

C       0.029032    1.434655   -0.444243
N       0.026561    0.024751   -0.078357
C       1.289971   -0.681967   -0.226615
C       0.745380   -0.395401    1.136749
C       1.379708    0.568421    2.106964
C       0.469632    1.486548    2.919497
C       1.098785    0.329965    3.603534
C       2.760212    1.085582    1.875871
O       3.246129    2.018290    2.472855
H       0.962974    1.968448   -0.206277
H      -0.139001    1.512360   -1.522835
H      -0.793199    1.947190    0.063800
H       1.238492   -1.688830   -0.633507
H       2.148154   -0.107538   -0.570622
H       0.233394   -1.219884    1.630051
H       0.870095    2.472414    3.125193
H      -0.588401    1.439664    2.689711
H       0.491123   -0.536507    3.841222
H       1.922548    0.523666    4.280247
H       3.354110    0.522989    1.126056
