11

N       0.118713    1.410776    0.011899
C      -0.056663    0.057383    0.003329
N      -1.220927   -0.455668   -0.157056
O      -1.269220   -1.864761   -0.317740
C      -0.186923   -2.657937   -0.159156
O      -0.271217   -3.843385   -0.269109
C       1.145964   -1.975291    0.152742
O       2.158167   -2.553316    0.369106
O       1.128079   -0.596578    0.146909
H       0.870335    1.749842    0.593744
H      -0.736902    1.943777    0.055088
