21

C      -0.366910    1.309921    0.143452
N       0.056131   -0.072143   -0.054396
C       0.843621   -0.563658    1.066626
C       2.116857    0.154788    1.206828
N       3.117799    0.717095    1.333613
C      -1.051463   -0.981722   -0.351964
C      -1.711297   -0.697435   -1.682340
C      -3.038889   -1.341875   -1.992799
C      -2.960129    0.146982   -1.779840
H       0.508293    1.940870    0.318981
H      -0.873688    1.670098   -0.752468
H      -1.055944    1.425481    1.001975
H       0.313370   -0.499821    2.038033
H       1.073901   -1.622461    0.903776
H      -0.638901   -1.998472   -0.371836
H      -1.821328   -0.968829    0.446859
H      -1.007329   -0.617670   -2.505621
H      -3.204938   -1.715344   -2.996751
H      -3.505201   -1.938868   -1.215316
H      -3.375869    0.546512   -0.860341
H      -3.074634    0.799059   -2.638714
