18

C       0.023700    1.044653    0.620800
O      -0.147990   -0.060263   -0.270792
C      -1.322591   -0.721391   -0.131395
O      -2.183607   -0.439845    0.674352
N      -1.400283   -1.737121   -1.035953
C      -2.504753   -2.674680   -1.004706
C      -2.370618   -3.743040    0.102714
C      -3.602179   -4.613622    0.186254
O      -3.615031   -5.807193    0.026927
H       1.006262    1.457993    0.391586
H      -0.751883    1.798008    0.460909
H      -0.016828    0.715055    1.662159
H      -0.571409   -1.955999   -1.563266
H      -3.422331   -2.100448   -0.847807
H      -2.571850   -3.152241   -1.986408
H      -1.494971   -4.377644   -0.058860
H      -2.263034   -3.212076    1.057198
H      -4.542768   -4.056245    0.406581
