18

N       0.307026    1.317667   -0.063257
C       0.208343   -0.071858   -0.100463
O       1.180103   -0.792123   -0.233363
N      -1.078924   -0.539219    0.053207
C      -1.366364   -1.942422    0.198813
C      -1.922570   -2.491156    1.543865
C      -2.806957   -3.463295    0.716038
C      -2.613498   -2.531754   -0.511987
H       1.203158    1.638765   -0.398197
H      -0.471363    1.847159   -0.427998
H      -1.777633    0.109355    0.381759
H      -0.456402   -2.470515   -0.088893
H      -1.209460   -2.906762    2.259269
H      -2.532365   -1.736736    2.053896
H      -2.318611   -4.430661    0.571351
H      -3.827415   -3.637118    1.062158
H      -3.415859   -1.788402   -0.576070
H      -2.474898   -2.981356   -1.498031
