15

O      -0.156026    1.358010   -0.038871
C      -0.054061   -0.003565   -0.009440
C      -0.240285   -0.923514   -1.153315
C      -1.139410   -1.164127    0.045056
N      -0.355819   -1.860430    1.080903
C       0.585496   -0.692253    1.188974
C      -2.584578   -1.002382    0.002904
O      -3.186060   -0.455499   -0.899540
H      -0.354829    1.644491   -0.936818
H      -0.782799   -0.500735   -1.995112
H       0.496829   -1.686403   -1.395225
H      -0.894657   -1.960656    1.936765
H       1.644110   -0.959599    1.099908
H       0.432949   -0.102465    2.097581
H      -3.117942   -1.384090    0.904266
