12

O      -0.003204    0.034574   -0.180164
C       0.054415    1.209519   -0.085684
C      -0.984995    2.375908    0.017253
N       0.147441    3.261600    0.391491
C       1.191235    2.272082    0.026537
C       2.235840    2.055394    1.018776
N       3.062329    1.866132    1.803241
C      -1.642972    2.675577   -1.250005
N      -2.129283    2.941487   -2.264795
H      -1.729229    2.252208    0.811036
H       0.194833    4.140557   -0.110194
H       1.650760    2.419041   -0.962017
