22

C       0.026281    1.600578   -0.099000
C       0.113515    0.078768    0.021701
N      -1.240504   -0.484533    0.041459
C      -2.025181   -0.639569    1.330579
C      -2.969243   -1.589131    0.526087
C      -3.877992   -1.027919   -0.549565
C      -1.489971   -1.971162    0.184025
C      -1.224178   -1.936878    1.711661
O       0.112976   -1.897643    2.132131
H       1.025243    2.039542   -0.189028
H      -0.565251    1.887406   -0.973214
H      -0.449582    2.039357    0.785422
H       0.601140   -0.328607   -0.873571
H       0.735276   -0.198047    0.877940
H      -2.300457    0.213272    1.955300
H      -3.484817   -2.330409    1.143776
H      -3.343806   -0.296210   -1.156278
H      -4.245075   -1.829439   -1.200288
H      -4.753546   -0.545625   -0.100701
H      -1.127105   -2.693173   -0.550701
H      -1.791981   -2.670980    2.303480
H       0.122711   -1.744590    3.082217
