19

C      -0.046062    1.479432    0.037840
C       0.089380   -0.022644    0.097348
O       0.684899   -0.515321   -1.088771
C       1.244570   -1.767451   -0.752798
C       1.519561   -1.652590    0.787956
O       0.976516   -0.400695    1.138572
C       0.849548   -2.809520    1.541506
C       1.660149   -4.088160    1.636554
O      -0.261632   -2.699576    1.999132
H       0.935120    1.931739   -0.124268
H      -0.713543    1.761013   -0.780250
H      -0.464193    1.850082    0.976724
H      -0.883296   -0.516469    0.258039
H       0.543696   -2.587052   -0.970089
H       2.154644   -1.915200   -1.338835
H       2.593739   -1.638682    1.005028
H       2.518842   -3.930366    2.300042
H       1.041475   -4.894988    2.030455
H       2.065716   -4.371051    0.658013
