10

F       0.094165    0.050762    0.002126
C      -0.047820    1.348624    0.010845
C      -1.237276    1.998339    0.030762
F      -2.383538    1.331464    0.043239
N      -1.285854    3.339008    0.038410
C      -0.186734    4.025897    0.026713
C       1.145569    3.431966    0.005129
O       2.213702    3.961938   -0.006974
O       1.099477    2.000821   -0.001700
H      -0.232929    5.109640    0.032968
