18

C      -0.072825    1.424133   -0.521414
C       0.107038   -0.029057   -0.063711
C       1.051801   -0.107763    1.122714
O       0.877587   -0.777912    2.107296
N      -1.194895   -0.591508    0.269476
C      -1.909799   -1.354940   -0.724986
C      -1.343970   -2.042081    0.486282
C      -0.195999   -2.974437    0.292851
O       0.603006   -2.906099   -0.613787
H       0.896948    1.883658   -0.735774
H      -0.672722    1.460963   -1.434327
H      -0.582577    2.010488    0.247873
H       0.622978   -0.592008   -0.861511
H       1.973842    0.504248    0.995657
H      -2.981667   -1.185832   -0.780323
H      -1.410984   -1.571447   -1.668261
H      -1.995036   -2.289981    1.319913
H      -0.114205   -3.765546    1.067101
