18

C      -0.198531    1.551662   -0.085534
C       0.007475    0.057781    0.007496
C       1.339649   -0.624848   -0.237556
C       2.578987    0.164057   -0.396645
C       3.062008    0.900318    0.609145
N       2.455584    0.938378    1.866062
C       1.384002    0.151538    2.255028
O       1.045360    0.086358    3.421338
C       0.716743   -0.621675    1.165872
H       0.692814    2.111836    0.201998
H      -0.453329    1.836591   -1.111988
H      -1.021429    1.868057    0.563958
H      -0.842879   -0.520656   -0.343922
H       1.298845   -1.559949   -0.788140
H       3.099616    0.149801   -1.346063
H       3.952154    1.511100    0.519001
H       2.914305    1.417329    2.626415
H       0.262387   -1.528553    1.547043
