18

C       0.485353    1.440829    0.027928
C       0.041581   -0.006285    0.006196
O       0.567339   -0.672812   -1.141326
C       1.151512   -1.884304   -0.746695
C       2.693260   -1.960913   -0.674994
N       3.138926   -0.782767    0.094509
C       2.648396   -1.969771    0.821938
C       1.105099   -1.893402    0.802094
O       0.497975   -0.686382    1.175220
H       1.575650    1.476672    0.061112
H       0.124487    1.951927   -0.869102
H       0.070717    1.941818    0.907242
H      -1.058429   -0.082383   -0.027184
H       0.693212   -2.738528   -1.254703
H       3.359492   -2.475378   -1.355715
H       4.157125   -0.811669    0.124865
H       3.272830   -2.492500    1.535210
H       0.617464   -2.753340    1.271698
