21

C      -0.037750    1.471639    0.168351
C       1.303454    0.824722   -0.037023
C       1.745046    0.183456    1.283932
C       0.468473   -0.725359    1.247418
C       0.766269   -2.219803    1.026533
C      -0.122371   -2.869752   -0.003156
C      -0.769691   -2.212365   -0.963573
C      -0.758869   -0.716070   -1.131325
C       0.017476   -0.014808   -0.042046
H      -0.300713    1.892538    1.138052
H      -0.421017    2.035740   -0.677604
H       1.952457    1.098618   -0.861506
H       2.666997   -0.398664    1.214359
H       1.834772    0.874362    2.129325
H      -0.220748   -0.608070    2.092095
H       1.809889   -2.348448    0.703838
H       0.692579   -2.759882    1.978233
H      -0.193515   -3.954467    0.035947
H      -1.367387   -2.768140   -1.682589
H      -0.357119   -0.454324   -2.121329
H      -1.800150   -0.360258   -1.144705
