20

C      -0.096572    1.517745    0.003190
C       0.059185    0.014494    0.001002
C       1.133381   -0.677195   -0.894586
C       1.126776   -1.808561    0.176493
C       0.715420   -0.719896    1.206878
C      -0.081888   -2.728774   -0.056805
C      -1.237329   -1.899803   -0.656053
O      -1.240136   -0.542662   -0.221307
H       0.856548    2.004476    0.229479
H      -0.447903    1.869605   -0.971918
H      -0.830842    1.821594    0.756035
H       0.878994   -0.915486   -1.930649
H       2.067428   -0.109950   -0.877236
H       2.047527   -2.368947    0.352085
H       1.577734   -0.173076    1.598964
H       0.049094   -1.007374    2.024918
H       0.165167   -3.542094   -0.748875
H      -0.375380   -3.190309    0.893225
H      -1.171226   -1.928434   -1.753374
H      -2.213579   -2.311939   -0.384179
