18

O       0.016741    1.411070   -0.034395
C      -0.011183   -0.004332   -0.080231
C      -1.437308   -0.480008   -0.026948
C      -2.491928    0.342806    0.053078
C      -3.908567   -0.144729    0.063227
N      -4.000127   -1.497534   -0.468195
C      -3.075071   -2.422168    0.173796
C      -1.636549   -1.944737    0.000249
O      -0.704375   -2.725269   -0.037029
H       0.934873    1.690920   -0.076591
H       0.455900   -0.393187   -0.998576
H       0.546017   -0.452152    0.757135
H      -2.328381    1.413672    0.116990
H      -4.297831   -0.046017    1.099754
H      -4.526093    0.519622   -0.553697
H      -4.950396   -1.841699   -0.394730
H      -3.241088   -2.542484    1.264961
H      -3.160731   -3.413679   -0.277485
