13

C      -0.011487    1.535855    0.023775
C      -0.014014    0.037472   -0.005615
C      -0.160246   -0.694713   -1.128672
F      -0.316771   -0.168936   -2.321962
O      -0.173049   -2.023441   -1.235857
N      -0.022726   -2.817418   -0.091783
C       0.121612   -2.186228    1.015905
C       0.147495   -0.718265    1.223879
O       0.292194   -0.229983    2.333105
H       0.928769    1.901455    0.448288
H      -0.142432    1.960472   -0.972070
H      -0.811282    1.899943    0.676269
H       0.235884   -2.827989    1.885305
