21

O      -0.112577    1.480341    0.059376
C       0.024206    0.067156    0.132730
C      -1.363187   -0.535529   -0.058527
C      -1.374285   -2.064022    0.006587
O      -0.457670   -2.632541   -0.915038
C      -1.204061   -2.654197    1.433338
C      -2.749018   -2.776819    1.540799
C      -2.808398   -2.667847   -0.005546
O      -3.790304   -1.869621   -0.622854
H       0.762396    1.868691    0.149225
H       0.704665   -0.312622   -0.642305
H       0.440837   -0.240040    1.105155
H      -2.039950   -0.120994    0.695575
H      -1.763576   -0.211603   -1.027000
H      -0.641166   -2.257110   -1.783995
H      -0.711364   -3.627303    1.379830
H      -0.695312   -2.036116    2.174861
H      -3.157322   -3.678295    2.002264
H      -3.200460   -1.898436    2.009553
H      -2.750396   -3.665767   -0.463388
H      -4.638210   -2.319015   -0.553089
