19

C       0.913885    0.488622    0.908269
C       0.295622   -0.712891    0.363727
C      -0.235571   -1.702236   -0.078236
C      -0.920423   -2.868684   -0.660881
O      -1.900222   -2.454318   -1.613535
C       0.015451   -3.905025   -1.269313
C       1.283757   -3.491376   -2.010528
C       1.376114   -4.259209   -0.717909
O       1.910306   -3.722757    0.451065
H       1.968906    0.561095    0.623986
H       0.406279    1.386797    0.540579
H       0.859546    0.499923    2.001962
H      -1.506216   -3.354012    0.129614
H      -1.421553   -2.063434   -2.354013
H      -0.553254   -4.724824   -1.699175
H       1.531482   -3.979884   -2.946871
H       1.550170   -2.439434   -1.964637
H       1.654231   -5.306222   -0.787240
H       1.557568   -2.830879    0.567439
