18

C      -0.217836    1.523493    0.193059
C       0.003863    0.028666    0.014149
C      -1.243875   -0.691783   -0.469987
O       1.125247   -0.227971   -0.881463
C       1.933248   -0.788207    0.158551
C       0.792101   -0.646621    1.202382
O       1.015920    0.235918    2.275346
C       0.253305   -1.919688    1.692493
N      -0.136309   -2.924023    2.112311
H       0.689205    2.021761    0.536690
H      -0.510697    1.950033   -0.771041
H      -1.013804    1.717398    0.917521
H      -1.560091   -0.263065   -1.425530
H      -1.055734   -1.757515   -0.617961
H      -2.061857   -0.578391    0.248223
H       2.264036   -1.807463   -0.068033
H       2.796326   -0.161074    0.414337
H       1.485075   -0.233592    2.974264
