20

O      -0.125081    1.447443    0.009752
C       0.011157    0.028463    0.077587
C      -1.400040   -0.541129   -0.002716
O      -2.190241    0.013505    1.022480
C      -1.993523   -0.552124   -1.449416
C      -1.673992   -2.075852   -1.549949
C      -1.450185   -2.076627   -0.035549
C      -0.835223   -3.034047    0.908932
N      -2.297635   -2.836937    0.874392
H       0.714573    1.850908    0.246382
H       0.631489   -0.356473   -0.744242
H       0.470669   -0.275417    1.029141
H      -1.925095    0.940006    1.094454
H      -3.067364   -0.360104   -1.412271
H      -1.528376    0.116369   -2.176688
H      -2.479069   -2.724337   -1.899654
H      -0.767096   -2.291437   -2.122736
H      -0.496071   -4.005318    0.557572
H      -0.274612   -2.638051    1.753292
H      -2.583051   -2.220557    1.634152
