17

C      -0.329583    1.564773    0.009372
C       0.021832    0.083887   -0.025066
C       0.694454   -0.590203   -1.237334
C       2.142906   -0.217911   -1.398870
C       2.751703    1.046579   -1.084441
C       3.319494    2.080841   -0.850732
C       1.753398   -1.255424   -0.336872
C       1.151442   -0.536243    0.847061
O       1.361625   -0.553537    2.024564
H       0.515917    2.188629   -0.282750
H      -1.166807    1.779977   -0.662787
H      -0.631820    1.848562    1.022388
H      -0.867205   -0.508322    0.235863
H       0.160115   -1.057710   -2.054860
H       2.596714   -0.701709   -2.261917
H       3.807003    2.998192   -0.630064
H       2.185855   -2.247955   -0.354357
