12

O      -0.069145    0.065118    0.256780
C      -0.121843    1.230594    0.062506
C      -1.147127    2.270124   -0.201075
C      -0.679641    3.574873    0.507775
O       0.194645    3.497874    1.608289
C       1.277448    2.726571    1.219539
O       2.198790    2.485505    1.922392
N       1.015084    2.223533   -0.119161
C       0.010683    3.155284   -0.708893
H      -2.161909    2.145999   -0.554937
H      -1.388822    4.388433    0.573685
H       0.166169    3.631367   -1.665819
