16

C      -0.112863    1.508173    0.036056
C       0.074042    0.018055   -0.059568
O       1.126647   -0.552680   -0.180495
N      -1.124938   -0.748151    0.002144
C      -1.245420   -2.108128   -0.060892
C      -2.587780   -2.343022    0.041491
C      -3.350215   -3.625185    0.037708
N      -3.223462   -1.123172    0.161772
N      -2.353795   -0.172523    0.138512
H       0.868267    1.978194   -0.018755
H      -0.754724    1.864870   -0.773460
H      -0.613263    1.771410    0.971278
H      -0.383781   -2.742752   -0.168967
H      -3.919001   -3.743345    0.965349
H      -4.067855   -3.649756   -0.788363
H      -2.677834   -4.479868   -0.064984
