19

C       0.011070    1.505689   -0.036497
C      -0.012794    0.010422   -0.048194
C      -0.098907   -0.778062   -1.128322
C      -0.034119   -2.216248   -0.747537
O       1.208136   -2.591727   -0.093133
C       0.074498   -2.259152    0.716016
C       0.073956   -0.821386    1.234960
C       1.298044   -0.540924    2.112460
O       1.157654    0.749855    2.691911
H       0.936208    1.883871    0.408665
H      -0.089286    1.909347   -1.047847
H      -0.801885    1.905281    0.581955
H      -0.175604   -0.431126   -2.152070
H      -0.487057   -3.003089   -1.342632
H      -0.313472   -3.068061    1.330231
H      -0.816643   -0.649234    1.856209
H       1.359242   -1.314823    2.894067
H       2.204224   -0.616994    1.497107
H       1.965679    0.951233    3.172775
