17

N      -0.015853   -1.183681    0.053694
C      -0.028208   -0.027056    0.050928
C      -0.034723    1.420849    0.032475
C      -0.645566    2.416196    1.030274
N      -0.034984    3.358470   -0.006318
C       1.179337    2.399803   -0.042279
C       1.748468    2.449444   -1.449998
C       0.416154    2.433265   -2.249462
C      -0.557293    2.378706   -1.084356
H      -1.735058    2.470961    1.090365
H      -0.187135    2.489766    2.019228
H       1.851348    2.476798    0.813515
H       2.328542    3.361842   -1.609268
H       2.392592    1.592172   -1.662485
H       0.267543    3.336818   -2.845976
H       0.315973    1.566959   -2.908581
H      -1.629815    2.434509   -1.275382
