19

C      -0.003596    1.505987    0.040940
C      -0.001978    0.012140   -0.020844
C      -0.059968   -0.760307   -1.109158
C      -0.107542   -2.237438   -0.778719
O       0.707906   -3.083925   -1.557151
C       0.304774   -2.222935    0.707107
C       0.489860   -3.442929    1.488044
O       1.623507   -2.751001    0.935462
C       0.037288   -0.826358    1.246489
H       0.891007    1.878941    0.555878
H      -0.035664    1.951071   -0.956884
H      -0.865974    1.878624    0.608753
H      -0.116293   -0.404207   -2.131755
H      -1.133578   -2.618844   -0.888266
H       1.570451   -3.089204   -1.117872
H       0.420783   -3.414282    2.574360
H       0.273008   -4.406065    1.028546
H       0.820489   -0.518212    1.948623
H      -0.918632   -0.775320    1.786671
