21

C       0.484511    1.558531    0.441815
C      -0.004771    0.182953   -0.009767
C       0.587650   -0.233429   -1.358826
O       1.995304   -0.355776   -1.297305
O       0.385672   -0.872517    0.875738
C      -0.285836   -0.959433    2.126756
C      -0.388444   -2.445648    2.485602
C       0.404626   -0.211945    3.187704
C       0.971187    0.362738    4.078653
H       1.576572    1.578152    0.461424
H       0.136268    2.322192   -0.261780
H       0.111259    1.814472    1.435450
H      -1.104282    0.187197   -0.096081
H       0.117037   -1.177495   -1.674125
H       0.364174    0.527016   -2.114249
H       2.174394   -0.929918   -0.542944
H      -1.302241   -0.549944    2.016532
H       0.611775   -2.879761    2.558370
H      -0.895303   -2.573425    3.445362
H      -0.946840   -2.972770    1.708069
H       1.472480    0.884525    4.856259
