20

C      -0.244561    1.546801   -0.124238
C      -0.071150    0.033331   -0.059742
O      -1.287092   -0.635930   -0.336702
C       1.192814   -0.489001   -0.817055
C       1.934853   -0.537289    0.545911
C       0.559039   -0.477260    1.260918
N       2.806822   -1.652269    0.823462
C       4.111548   -1.517387    1.187568
O       4.698475   -0.464799    1.323711
H       0.680724    2.070002    0.136819
H      -0.523449    1.861978   -1.137795
H      -1.030564    1.868572    0.565894
H      -1.665319   -0.255539   -1.137068
H       0.999532   -1.494789   -1.201689
H       1.622815    0.128889   -1.609614
H       2.530759    0.358709    0.720186
H       0.468538    0.147434    2.152498
H       0.178207   -1.478818    1.481119
H       2.433406   -2.585576    0.741923
H       4.592978   -2.502287    1.351374
