19

C       0.086430    1.554444    0.093008
C      -0.023712    0.028434    0.017481
C      -1.462929   -0.508488   -0.093191
C      -2.172118   -0.041676   -1.373229
C      -1.466334   -2.050263   -0.000645
C      -2.855682   -2.616780    0.175499
O      -3.363275   -3.455486   -0.523587
H       1.125526    1.860512    0.248565
H      -0.262173    2.037785   -0.824373
H      -0.504764    1.953334    0.925165
H       0.560215   -0.340766   -0.836738
H       0.441050   -0.405696    0.911976
H      -2.027092   -0.124143    0.770562
H      -1.618205   -0.364539   -2.262661
H      -3.181176   -0.459720   -1.447205
H      -2.263630    1.046911   -1.410826
H      -1.008599   -2.506796   -0.884345
H      -0.883296   -2.356191    0.880563
H      -3.411906   -2.185401    1.043125
