16

C      -0.189424    1.424960    0.080900
O      -0.045351    0.009678    0.001746
C      -1.166450   -0.720756   -0.008008
C      -1.337118   -2.067825   -0.054122
C      -2.761840   -2.263105   -0.044529
C      -3.345247   -1.039741    0.006552
C      -4.747112   -0.553211    0.041868
O      -2.355279   -0.071520    0.029379
H       0.824945    1.825075    0.081249
H      -0.742892    1.817176   -0.778686
H      -0.705769    1.721408    1.000007
H      -0.558306   -2.810445   -0.089636
H      -3.283318   -3.207814   -0.072136
H      -4.958774    0.025694    0.949207
H      -4.981341    0.088983   -0.815976
H      -5.428259   -1.407241    0.019985
