14

O      -0.000679    1.444164   -0.133069
C      -0.010750    0.050259   -0.007482
C       0.151244   -0.545751    1.429656
O      -1.172625   -1.090738    1.398608
C      -1.435078   -0.530967    0.097125
C       0.874231   -0.632114   -1.042041
O       0.711803   -1.746979   -1.462520
C       2.028030    0.187054   -1.486933
N       2.941288    0.831587   -1.784411
H       0.893561    1.782517    0.000968
H       0.918178   -1.317485    1.562661
H       0.271569    0.243255    2.182509
H      -2.201578    0.250401    0.117077
H      -1.677391   -1.301042   -0.640487
