15

C       0.084456    1.579934    0.002876
C      -0.004836    0.043526    0.027968
C       0.723307   -0.511472    1.173136
N       1.318194   -0.952615    2.059566
C      -1.472646   -0.484276    0.045531
N      -2.202325    0.022787    1.200659
C      -2.119615   -0.174373   -1.249084
N      -2.652016    0.098470   -2.238482
H       1.126930    1.896313   -0.070396
H      -0.457310    1.970946   -0.862744
H      -0.333324    2.009480    0.916366
H       0.467639   -0.352092   -0.879062
H      -1.427290   -1.574452    0.134501
H      -2.486106    0.986285    1.056588
H      -3.048201   -0.516252    1.350575
