20

C      -0.087863    1.473943    0.251276
C      -0.088944    0.018682   -0.071586
C       0.863835   -0.934921   -0.909554
C       1.044616   -1.698132    0.409421
N      -0.224899   -1.089955    0.924668
C      -1.140369   -1.008831   -0.290699
C      -2.600022   -1.013974    0.047708
O      -2.997031   -2.250429    0.619003
C      -0.410953   -1.598329   -1.495672
H       0.854299    1.775789    0.722529
H      -0.221481    2.079520   -0.651823
H      -0.900136    1.709253    0.945595
H       1.697210   -0.648760   -1.549134
H       1.062600   -2.794111    0.375363
H       1.874448   -1.334720    1.021388
H      -2.823018   -0.172717    0.722451
H      -3.203361   -0.881417   -0.856817
H      -2.390201   -2.398943    1.354539
H      -0.742412   -1.111945   -2.417295
H      -0.398967   -2.684777   -1.633088
