16

C      -0.287256    1.454250   -0.032080
C      -0.027918   -0.031558    0.095306
O      -0.052885   -0.610824    1.155499
C       0.294805   -0.769254   -1.208352
C       0.135217   -2.261251   -1.075484
O      -1.127912   -2.813754   -1.447411
C       0.004678   -3.152743   -2.248178
C       0.032210   -2.620978   -3.594895
N       0.076795   -2.204212   -4.672102
H       0.499877    1.939027   -0.619892
H      -1.228740    1.615396   -0.570578
H      -0.353045    1.908497    0.956940
H      -0.317469   -0.387965   -2.031141
H       1.336708   -0.526886   -1.463771
H       0.559358   -2.693758   -0.171745
H       0.337841   -4.185929   -2.169799
