17

O      -0.140559    0.078658   -0.285539
C      -0.016965    1.224923    0.064453
C       1.256513    1.995530    0.012859
N       1.541002    3.067943    1.005742
C       2.578397    3.501103    0.002196
C       3.595844    2.362106    0.191771
C       2.629338    1.285699   -0.355810
N       2.396887    1.694248   -1.773824
C       1.725621    2.857564   -1.203490
H      -0.886594    1.807360    0.450629
H       0.760433    3.725813    0.962631
H       2.908650    4.538162    0.031096
H       4.499597    2.440377   -0.419178
H       3.862036    2.249996    1.243936
H       2.799831    0.229639   -0.159436
H       3.252595    1.894192   -2.292197
H       1.085500    3.488578   -1.821741
