20

C       0.188133    1.509116   -0.477748
C      -0.014194    0.086317   -0.015471
N       1.163162   -0.800344    0.005594
C       0.486935   -0.467071    1.271713
C       1.300101    0.323033    2.278091
O       0.417774    0.985538    3.192937
C       0.735730    0.634134    4.536975
C       1.847197   -0.372166    4.427192
C       2.173301   -0.539997    3.151600
H       1.162972    1.894106   -0.171861
H       0.137872    1.565851   -1.570453
H      -0.587852    2.162986   -0.066378
H      -0.947182   -0.359581   -0.359983
H       0.917775   -1.739575   -0.293468
H      -0.127983   -1.236183    1.737994
H       1.902082    1.069172    1.738647
H       1.040911    1.530912    5.100833
H      -0.157794    0.229521    5.037416
H       2.296277   -0.855323    5.285817
H       2.939953   -1.186291    2.745018
