13

C       0.152331   -1.208759   -0.005575
C       0.048071   -0.008332    0.002350
C      -0.059447    1.391326    0.011430
C      -1.157706    2.247711    0.031677
N      -0.736590    3.561584    0.032771
C       0.573523    3.511527    0.013857
N       1.036916    2.232861    0.000353
C      -2.520940    1.876652    0.049076
C      -3.680954    1.556056    0.063860
H       0.228208   -2.267855   -0.012308
H       1.236386    4.363974    0.009018
H       1.997208    1.930625   -0.014922
H      -4.704621    1.275229    0.076929
