17

O      -0.068240   -0.108247    0.096278
C      -0.027953    1.103758    0.055990
N      -1.183314    1.850436   -0.172078
C      -1.480983    3.183188    0.122588
C      -0.819378    3.994637    0.953608
C       0.383277    3.557072    1.752170
C       1.466379    3.010949    0.842813
C       2.156315    1.706877    1.118079
N       1.161775    1.824517    0.071524
H      -1.960268    1.251666   -0.411253
H      -2.370566    3.533929   -0.391593
H      -1.176851    5.012394    1.054506
H       0.777456    4.386016    2.347123
H       0.092609    2.768579    2.462226
H       2.009135    3.767102    0.277643
H       3.177321    1.540434    0.786429
H       1.869038    1.162929    2.014792
