21

C       0.019948    1.569503   -0.111133
C       1.538829    1.849851   -0.023029
C       2.017938    1.989509    1.441835
C       1.755018    0.758814    2.330013
C       0.297443    0.277698    2.409329
O      -0.193185   -0.491726    1.320758
C      -0.079807    0.035145   -0.008231
C       1.226983   -0.398122   -0.656765
C       2.106192    0.602142   -0.672731
H      -0.578186    2.095921    0.636553
H      -0.348486    1.867718   -1.097348
H       1.811714    2.762906   -0.563890
H       3.093255    2.207934    1.455692
H       1.521858    2.865328    1.880816
H       2.381726   -0.081975    2.015032
H       2.063273    1.011815    3.352631
H       0.194868   -0.395003    3.267307
H      -0.361400    1.139830    2.605092
H      -0.959907   -0.356030   -0.528843
H       1.403487   -1.416763   -0.981945
H       3.132617    0.539795   -1.019608
