18

C      -0.173114    1.564693    0.048736
C       0.025565    0.044001   -0.003412
C       0.848247   -0.454017   -1.175932
C       1.832499   -1.277391   -0.812304
C       1.917446   -1.426709    0.669499
C       2.235327   -0.162076    1.424111
C       0.779493   -0.546176    1.207973
C       0.011569   -0.940285    2.351512
N      -0.626725   -1.246364    3.267526
H       0.783907    2.092297    0.102194
H      -0.699874    1.914572   -0.844612
H      -0.768944    1.847200    0.921759
H      -0.970071   -0.420000   -0.040321
H       0.633194   -0.142266   -2.191920
H       2.529506   -1.765811   -1.483021
H       2.149294   -2.382968    1.123845
H       2.603848   -0.256278    2.439320
H       2.626506    0.679929    0.864275
