18

C      -0.052356    0.451024   -0.857988
O       0.295797    0.815267    0.465219
C       0.913911   -0.151253    1.182025
C       1.249583   -1.458685    0.890569
C       1.878722   -1.965455    2.069445
O       2.390198   -3.219101    2.255956
C       1.903162   -0.975023    3.014294
N       1.307837    0.153607    2.449789
C       1.064330    1.403586    3.134483
H      -0.753374   -0.393478   -0.863299
H      -0.529509    1.324044   -1.305509
H       0.837213    0.178623   -1.440226
H       1.083424   -1.981770   -0.037307
H       2.248287   -3.724727    1.451307
H       2.289820   -0.960034    4.018295
H       1.957096    1.702627    3.691469
H       0.833651    2.173861    2.398436
H       0.224557    1.325872    3.835840
