16

C       0.000710    1.566770    0.010431
O       1.431666    1.530730    0.167830
C       1.413019    0.107329    0.385385
C      -0.091052    0.017948    0.014923
C      -1.026737   -0.644065    0.963238
N      -1.067820   -0.351394    2.257662
N      -2.039431   -1.176263    2.710016
C      -2.534697   -1.915580    1.698975
N      -1.918761   -1.607677    0.575150
H      -0.496718    2.039665    0.866090
H      -0.301394    2.069304   -0.915340
H       2.109069   -0.421546   -0.275427
H       1.625054   -0.153332    1.429528
H      -0.258303   -0.398712   -0.978054
H      -2.290884   -1.168800    3.685019
H      -3.320830   -2.644559    1.826299
