11

C      -0.010643    1.541287    0.007221
C      -0.002038    0.007560    0.038635
N       0.762687   -0.471018    1.192509
C      -1.385420   -0.520993   -0.001941
N      -2.456808   -0.956361    0.006950
H       1.020435    1.901066    0.003924
H      -0.528732    1.911935   -0.880315
H      -0.518495    1.941504    0.890132
H       0.504188   -0.358055   -0.862761
H       0.300707   -0.183649    2.051553
H       0.781490   -1.486703    1.204282
