18

C      -0.071077    1.552026   -0.010325
C       0.044117    0.044269    0.009483
C       1.383831   -0.635794   -0.167555
O       2.553573    0.128459   -0.222477
C       0.707745   -0.662312    1.167914
C       1.240193   -0.120877    2.503642
N       0.686594   -1.344705    3.108094
C       0.235312   -1.892647    1.925344
O      -0.301951   -2.931921    1.645764
H       0.860752    2.020685    0.316066
H      -0.291998    1.911206   -1.021601
H      -0.876914    1.897170    0.645425
H      -0.802083   -0.496519   -0.408553
H       1.412555   -1.573869   -0.721646
H       2.643087    0.475872   -1.116570
H       2.329413   -0.037961    2.558237
H       0.775749    0.801425    2.866210
H       0.801322   -1.746907    4.025553
