13

C       0.033965    1.472894    0.009735
N      -0.018581    0.015518    0.002267
N      -0.003761   -0.581725   -1.187966
C       0.020942   -1.884462   -1.209803
C       0.043140   -2.722592   -0.012962
O       0.064756   -3.945855   -0.019749
C       0.035361   -1.897510    1.193075
N       0.010487   -0.594604    1.185677
H       1.072117    1.820509    0.002315
H      -0.476357    1.838681   -0.880272
H      -0.460305    1.828601    0.912756
H       0.023765   -2.350115   -2.190753
H       0.049917   -2.373769    2.168814
