19

C      -0.040151    1.340696   -0.249899
O      -0.035501   -0.017270    0.171334
C      -1.274521   -0.601845    0.153609
C      -2.355051   -0.405035    1.230899
C      -2.688399   -1.930603    1.103675
C      -1.593061   -2.065375    0.035631
C      -1.849856   -1.141908   -1.161863
C      -3.175428   -0.805528   -1.720461
O      -3.371685   -0.571313   -2.891259
H       0.993005    1.689591   -0.202502
H      -0.410743    1.435294   -1.279209
H      -0.659494    1.964875    0.408367
H      -1.904628   -0.168610    2.197381
H      -3.152900    0.313335    1.026895
H      -2.439769   -2.477899    2.014803
H      -3.705188   -2.197699    0.807090
H      -0.923532   -2.907434   -0.088838
H      -1.078063   -1.223788   -1.922109
H      -4.014027   -0.763749   -0.992320
