17

O      -0.877726    0.958590    0.115665
C       0.281888    0.705643   -0.073547
C       1.411191    1.717817    0.107236
O       2.671164    1.032330    0.025375
C       3.509437    1.763984   -0.851201
C       3.908292    1.298685   -2.301984
C       3.433502    2.712244   -2.820979
C       2.642482    2.767573   -1.531268
C       1.408194    2.722593   -1.046143
H       0.637985   -0.289816   -0.421253
H       1.291835    2.181442    1.099159
H       4.384404    2.147585   -0.309655
H       4.953209    1.029910   -2.470720
H       3.246857    0.504130   -2.651665
H       4.264756    3.422008   -2.861300
H       2.873919    2.760186   -3.755886
H       0.490809    3.143876   -1.434194
