15

N       0.051519   -1.105762   -0.037747
C      -0.003158    0.052407   -0.016515
C      -0.029065    1.461492    0.009523
C      -1.067308    2.315908    0.017890
C      -0.396342    3.687068    0.048185
C       0.739732    3.466585   -1.015023
C       1.196739    2.400177    0.036078
C       0.723957    3.427017    1.119138
H      -2.126148    2.102910    0.006187
H      -1.029334    4.572416    0.059924
H       0.445742    3.110268   -2.004514
H       1.424472    4.315823   -1.091141
H       2.186055    1.947266    0.034990
H       1.407246    4.272679    1.236791
H       0.415481    3.034347    2.090290
