16

O       0.110793    1.322399   -0.130053
C       0.093762   -0.042291   -0.109665
C       0.606313   -0.963768   -1.216401
C       0.075945   -1.935450   -0.134965
C       0.531346   -1.015247    1.041958
N      -0.808703   -0.917152    1.706738
C      -1.135117   -0.999422    0.236459
C      -2.455661   -0.998529   -0.303566
C      -3.564799   -0.991703   -0.770976
H      -0.289340    1.630772    0.693826
H       0.059497   -0.939754   -2.162058
H       1.686567   -0.965036   -1.384348
H       0.051201   -3.023427   -0.136647
H       1.472853   -1.034614    1.589781
H      -1.049400   -1.798900    2.168205
H      -4.544028   -0.981914   -1.181737
