17

C       0.217020    1.624851   -0.471783
C      -0.046349    0.161930   -0.113749
C       0.811846   -0.899626   -0.842303
O       1.459818   -1.262420    0.417667
C       0.727629   -0.338832    1.119973
O       0.777761   -0.107031    2.284510
C      -1.534580   -0.138109   -0.109709
C      -2.233682   -0.835352    0.979613
O      -2.328850    0.584003    0.820889
H       1.288091    1.846566   -0.484454
H      -0.194797    1.859194   -1.459209
H      -0.264963    2.273252    0.263616
H       0.274828   -1.754915   -1.259290
H       1.542409   -0.516674   -1.557996
H      -1.965405   -0.194399   -1.112993
H      -3.144078   -1.390848    0.760136
H      -1.680078   -1.162313    1.856392
