14

O      -0.116666    1.444575    0.056312
C       0.007278    0.050228    0.042342
C       0.794052   -0.395652   -1.188924
O       1.166225    0.406453   -2.009361
C       0.695546   -0.446630    1.281985
C       1.328521    0.277949    2.262866
N       1.774186   -0.672946    3.116433
N       1.449377   -1.910305    2.702004
N       0.792397   -1.772205    1.585544
H       0.292911    1.744032   -0.772516
H      -0.980590   -0.439013   -0.029190
H       0.999484   -1.478657   -1.270691
H       1.470653    1.333271    2.412241
H       2.280443   -0.562016    3.980686
