18

C       0.130561    1.572578   -0.114343
C       0.085078    0.063344    0.015443
O       0.737765   -0.533164   -1.121690
C       1.197640   -1.805113   -0.750285
C       2.569000   -1.818229   -0.141894
C       1.331029   -1.858071    0.744726
C       0.780052   -0.534470    1.275847
O       1.733315    0.314017    1.892573
H       1.161478    1.932297   -0.096231
H      -0.336652    1.884541   -1.052166
H      -0.406528    2.039665    0.716184
H      -0.962815   -0.279206    0.025737
H       0.827428   -2.627238   -1.355520
H       3.160786   -2.726203   -0.188443
H       3.144754   -0.902380   -0.240115
H       1.145187   -2.765456    1.305557
H       0.028373   -0.719505    2.049356
H       2.566163    0.223528    1.419015
