19

C       0.235083    1.521706    0.005466
C       0.147887    0.068925    0.014014
C       0.071197   -1.133332    0.025023
C      -0.000760   -2.563661    0.019221
C      -0.461406   -3.326290    1.242597
C      -1.357802   -3.295149    0.023572
C      -2.591976   -2.568710    0.034335
C      -3.638060   -1.971159    0.028437
C      -4.897491   -1.241771    0.025816
H       1.264005    1.856985   -0.167368
H      -0.390709    1.956842   -0.781973
H      -0.092771    1.946009    0.961180
H       0.759431   -3.057551   -0.579945
H       0.041267   -4.257107    1.480231
H      -0.775846   -2.738293    2.095763
H      -1.366215   -4.203168   -0.573286
H      -5.401244   -1.319758   -0.944255
H      -5.586443   -1.623595    0.787893
H      -4.737384   -0.176877    0.228610
