18

C      -0.118003    1.529820    0.003946
C       0.077661    0.019601   -0.012718
N       0.899640   -0.499977   -1.161626
C       1.098878   -1.938304   -0.729512
C       1.968866   -1.336229    0.422919
O       2.860684   -2.010987    1.215511
C       2.314776   -0.266386   -0.663620
C       0.886828   -0.566072    1.154103
O       0.775254   -0.482606    2.351223
H       0.831754    2.070817    0.029313
H      -0.667962    1.847032   -0.885660
H      -0.687529    1.815316    0.892758
H      -0.903923   -0.467313   -0.055155
H       0.183958   -2.486521   -0.487564
H       1.691221   -2.481617   -1.468528
H       2.597316   -1.834145    2.133579
H       3.035993   -0.626796   -1.399690
H       2.557776    0.754839   -0.362782
