18

C       0.651633    1.328448    0.175877
C      -0.092238    0.013001   -0.050623
C       0.361293   -0.738053   -1.308368
C       1.375291   -1.742363   -0.769647
O       2.222633   -2.331346   -1.387133
C       1.119008   -1.864955    0.735931
C       2.394849   -1.703987    1.562161
O       0.125364   -0.899133    1.046486
H       1.737046    1.188471    0.125783
H       0.370453    2.064750   -0.584811
H       0.403521    1.734000    1.160172
H      -1.169094    0.209065   -0.064397
H      -0.463195   -1.305855   -1.755982
H       0.798492   -0.110372   -2.087030
H       0.697390   -2.864078    0.924505
H       2.848960   -0.722089    1.401358
H       2.170791   -1.810140    2.626432
H       3.116343   -2.472043    1.269477
