19

C       0.035928    1.375033    0.089901
O      -0.175269   -0.003366   -0.104556
C       0.576947   -0.559195   -1.177246
C       2.050549   -0.781561   -0.843356
C       2.402141   -2.059085   -0.979831
C       1.236685   -2.910780   -1.389283
O       1.414729   -3.918770   -2.336362
C       0.116763   -2.990566   -0.375076
C       0.072335   -1.962285   -1.490998
H       1.063377    1.606615    0.408854
H      -0.176676    1.952908   -0.823895
H      -0.650576    1.697646    0.876857
H       0.471246    0.100160   -2.055931
H       2.696813    0.017003   -0.498762
H       3.387586   -2.474975   -0.797281
H       1.692129   -4.716555   -1.873860
H      -0.573743   -3.820950   -0.484862
H       0.294443   -2.657509    0.640833
H      -0.670497   -2.096926   -2.266411
