15

C       0.014176    1.422643    0.077245
O       0.051284   -0.006260   -0.020562
C       0.618531   -0.667693    0.980021
C       0.794447   -2.008335    1.156457
C       1.458764   -2.080179    2.411026
C       1.920504   -3.298254    3.145102
N       1.663700   -0.894085    2.940850
O       1.117154    0.023705    2.009644
H       1.025184    1.836479    0.130139
H      -0.484132    1.762918   -0.830119
H      -0.550557    1.738831    0.958889
H       0.497021   -2.804433    0.497048
H       2.639878   -3.865545    2.545676
H       2.396015   -3.010457    4.084689
H       1.079099   -3.963170    3.365423
