16

C      -0.624650   -0.512684   -1.041658
C      -0.108174    0.158740   -0.189659
C       0.537730    0.984412    0.822523
C       1.655082    1.823662    0.248720
C       3.020179    1.392253   -0.348027
C       3.012147    2.922807   -0.132964
C       1.600036    3.003945   -0.756078
O       2.385278    2.706606    1.194797
H      -1.089606   -1.110694   -1.785729
H      -0.193219    1.653800    1.293346
H       0.950194    0.356330    1.622161
H       3.663730    0.832237    0.331768
H       3.035525    1.010986   -1.371433
H       3.834917    3.634473   -0.185552
H       1.485467    2.770119   -1.816816
H       0.999611    3.855687   -0.433710
