15

C       0.043461    1.489418   -0.034950
C      -0.064206    0.006832   -0.039318
C      -1.119270   -0.848854    0.042832
N      -2.512416   -0.634874    0.106398
C      -0.510527   -2.141831   -0.034623
N      -1.196429   -3.340777    0.068478
N       0.794320   -2.068864   -0.152346
O       1.083022   -0.695153   -0.164495
H       0.838506    1.815828    0.642569
H       0.274172    1.886073   -1.030384
H      -0.896495    1.938021    0.299348
H      -2.755620    0.341687   -0.006518
H      -2.905429   -0.960517    0.984549
H      -2.095497   -3.309822   -0.395963
H      -0.647044   -4.135976   -0.230103
