19

O       0.149504    1.351205   -0.210362
C       0.095056   -0.036533    0.054141
C      -1.346051   -0.560034    0.086497
C      -2.054184   -0.503295   -1.310798
C      -1.680684   -1.990782   -1.543909
C      -1.452102   -2.130786   -0.030009
O      -0.336692   -2.907357    0.320755
C      -2.137094    0.065950    1.196505
O      -1.760084    0.978156    1.897599
H      -0.265216    1.777373    0.550463
H       0.656169   -0.534925   -0.740771
H       0.590419   -0.287021    1.003412
H      -3.134341   -0.351829   -1.226254
H      -1.645051    0.247783   -1.987094
H      -2.423325   -2.646018   -2.002698
H      -0.735678   -2.096933   -2.081672
H      -2.364310   -2.484116    0.474021
H      -0.325551   -3.031796    1.275279
H      -3.154430   -0.367844    1.344648
