21

C      -0.071998    1.559083   -0.085559
C      -0.012933    0.047502   -0.017829
C       1.316380   -0.677646   -0.197208
C       0.635265   -0.656073    1.128061
C       1.197229   -0.202610    2.479226
C      -0.070720    0.062548    3.322445
C      -0.839265   -1.247553    2.943519
C       0.236877   -1.842246    2.008373
O       1.461742   -1.611912    2.778409
H       0.815093    2.009278    0.372536
H      -0.120048    1.906660   -1.123344
H      -0.950890    1.952492    0.437444
H      -0.875244   -0.455992   -0.451546
H       1.329214   -1.603643   -0.763665
H       2.206372   -0.067925   -0.326007
H       2.063660    0.449417    2.590590
H       0.164764    0.120146    4.387138
H      -0.594435    0.975311    3.026973
H      -1.022329   -1.894154    3.804139
H      -1.788474   -1.062743    2.433254
H       0.124266   -2.860606    1.635444
