18

C      -0.190892    1.629808    0.091430
C       0.048777    0.142781    0.078537
C      -1.035190   -0.797201   -0.441889
O      -0.657285   -2.099158   -0.024880
C       0.037171   -1.993219    1.216602
C       0.733227   -0.644527    1.170080
N       1.412063   -0.342216   -0.068999
C       1.910641   -1.278908   -0.960287
O       2.587952   -2.226228   -0.645208
H       0.644695    2.149019    0.566045
H      -0.294427    2.019072   -0.927368
H      -1.109407    1.869715    0.636942
H      -2.002352   -0.491438   -0.008869
H      -1.137585   -0.812982   -1.531510
H      -0.656709   -2.016929    2.071464
H       0.721964   -2.841746    1.278462
H       1.113036   -0.191667    2.080644
H       1.693876   -1.008565   -2.012013
