15

O       0.308019    0.258487   -0.874856
C      -0.001908    1.225462   -0.243544
C      -1.378940    1.766276   -0.008268
C      -1.598013    3.098941   -0.760124
O      -2.724834    3.542815   -0.814338
C      -0.510200    3.831499   -1.471952
C       0.826275    3.712237   -1.458975
C       1.681611    2.782977   -0.653746
O       0.919970    2.086117    0.321209
H      -2.150580    1.065214   -0.329399
H      -1.515023    1.980561    1.056763
H      -0.941373    4.606482   -2.100155
H       1.392743    4.377402   -2.109748
H       2.204427    2.077381   -1.316275
H       2.445258    3.348669   -0.109639
