23

C       0.918636    1.127745    0.007133
O       0.911972   -0.257625   -0.239846
C      -0.158767   -0.668038   -1.059610
C      -0.090707   -2.184760   -1.254300
O      -1.254057   -2.625137   -1.947852
C       1.204245   -2.630137   -1.937156
C       1.338382   -4.151171   -2.040142
C       2.598827   -4.584157   -2.775713
O       2.618645   -6.003444   -2.815714
H       1.019346    1.708172   -0.923869
H      -0.001251    1.455556    0.516347
H       1.774796    1.342287    0.651393
H      -1.128384   -0.409150   -0.605521
H      -0.111357   -0.163150   -2.043373
H      -0.155796   -2.654726   -0.265680
H      -1.188839   -2.312790   -2.857515
H       1.238942   -2.179343   -2.942394
H       2.045585   -2.201420   -1.381351
H       1.351635   -4.594272   -1.036830
H       0.466046   -4.569081   -2.553173
H       2.601226   -4.157413   -3.793115
H       3.488125   -4.187512   -2.258050
H       3.421183   -6.280285   -3.267039
