12

O      -0.321568    0.458853   -0.751734
C       0.152902    1.016175    0.204989
C       1.348510    1.917862    0.107726
C       2.384277    1.553493   -0.972336
C       1.492851    2.710503   -1.204859
C       1.803018    2.514116    1.332421
N       2.148772    2.981473    2.332600
H      -0.265278    0.898540    1.224504
H       3.421397    1.729807   -0.715278
H       2.166128    0.629753   -1.495491
H       0.661241    2.582986   -1.888044
H       1.894008    3.712277   -1.113727
