21

C      -0.021698    1.384942    0.065113
O      -0.057791   -0.008565    0.255934
C      -1.322333   -0.566522   -0.028952
C      -1.224193   -2.076435    0.149529
C      -2.574780   -2.766642   -0.106685
O      -3.061819   -2.458185   -1.385408
C      -2.473824   -4.287519    0.050714
C      -2.002618   -4.856856    1.367769
O      -2.778983   -4.991102   -0.889691
H       0.990452    1.722522    0.301550
H      -0.255526    1.661741   -0.975130
H      -0.733098    1.907836    0.724619
H      -2.089077   -0.151298    0.649958
H      -1.635285   -0.330512   -1.056484
H      -0.475789   -2.470101   -0.547637
H      -0.877379   -2.288567    1.166845
H      -3.291784   -2.418203    0.659953
H      -3.184108   -3.318443   -1.821371
H      -0.914428   -4.750181    1.444143
H      -2.439313   -4.319878    2.215167
H      -2.254608   -5.916718    1.420615
