15

N       0.245201    1.235775    0.601160
C       0.027730   -0.073191    0.134190
C      -1.163626   -0.627633   -0.278402
N      -0.930317   -1.967105   -0.556182
C       0.384342   -2.236943   -0.344929
O       0.848380   -3.499292   -0.604666
C       1.501910   -4.147135    0.407605
O       2.008650   -5.211310    0.246665
C       1.023230   -1.100072    0.088229
H       1.141172    1.604480    0.307330
H      -0.480784    1.876383    0.306193
H      -2.144110   -0.197020   -0.393114
H      -1.599677   -2.631355   -0.902204
H       1.491362   -3.560401    1.342390
H       2.070657   -1.005207    0.327092
