21

C      -0.199575    1.525547   -0.088691
C       0.006561    0.028927   -0.002649
C       1.366215   -0.603948   -0.209064
O       2.471967    0.239672   -0.400756
C       3.171663    0.498397    0.789704
O       2.351690    1.083013    1.762565
C       1.388841    0.153461    2.251962
C       0.711683   -0.661276    1.155923
C       0.151618   -1.983959    1.640938
H       0.664496    2.072778    0.288691
H      -0.367529    1.829021   -1.127582
H      -1.077811    1.829902    0.491321
H      -0.814817   -0.552411   -0.416865
H       1.437342   -1.516419   -0.798137
H       3.619378   -0.433101    1.182549
H       3.951497    1.221425    0.543582
H       1.883949   -0.543985    2.948072
H       0.665265    0.740844    2.826408
H      -0.639998   -1.829690    2.384558
H      -0.282911   -2.555701    0.815657
H       0.928743   -2.602994    2.104649
