17

O      -1.114539    1.184466    0.741614
C      -1.391619   -0.181853    0.691866
C      -1.159747   -0.736255   -0.704573
O      -0.791113   -0.000819   -1.594088
C      -1.322671   -2.236326   -0.936866
O      -2.130484   -2.887137    0.017770
C      -3.513488   -2.850312   -0.261236
C      -4.224124   -3.706340    0.775583
O      -5.419210   -3.797407    0.848617
H      -0.834269    1.423461   -0.156321
H      -0.762368   -0.753501    1.394463
H      -2.431558   -0.389836    0.989345
H      -1.674172   -2.397744   -1.964975
H      -0.321106   -2.678716   -0.858684
H      -3.928359   -1.830918   -0.228015
H      -3.732072   -3.258621   -1.261493
H      -3.532923   -4.248835    1.456781
