21

C       0.141024    1.262152    0.386225
O       0.020995   -0.058482   -0.084943
C      -1.270948   -0.592322    0.102302
C      -1.258555   -2.028601   -0.418859
C      -2.576261   -2.751666   -0.227848
C      -3.738605   -2.327746   -1.121892
O      -4.954010   -2.918353   -0.722761
C      -2.609540   -4.096666    0.359747
O      -2.980434   -2.947606    1.143634
H       1.168129    1.584521    0.198820
H      -0.546885    1.947088   -0.135021
H      -0.062253    1.331160    1.466662
H      -1.546414   -0.587960    1.169244
H      -2.017035    0.021642   -0.429801
H      -0.995889   -2.022445   -1.483752
H      -0.463017   -2.568222    0.103517
H      -3.811160   -1.227935   -1.126160
H      -3.540700   -2.643112   -2.152903
H      -4.974256   -2.837722    0.240810
H      -3.431782   -4.763883    0.114650
H      -1.678139   -4.573686    0.658657
