20

O      -0.068760    1.440449    0.007153
C       0.029711    0.020330    0.004096
C       0.857524   -0.490991    1.189007
C       0.714433   -2.016826    1.395783
N      -0.582805   -2.619257    1.091134
C      -1.889070   -2.123362    1.482647
C      -2.041793   -0.592340    1.498601
C      -1.385878   -0.537781    0.079027
C      -1.418893   -2.087554    0.047064
H       0.823169    1.800342    0.055499
H       0.484279   -0.325222   -0.941224
H       1.918768   -0.250898    1.044821
H       0.532499    0.053859    2.080203
H       1.432569   -2.534811    0.747973
H       0.978203   -2.280504    2.425499
H      -2.557879   -2.826315    1.968311
H      -3.097724   -0.315077    1.445875
H      -1.580951   -0.031877    2.314494
H      -2.019677   -0.058501   -0.668727
H      -1.683740   -2.709846   -0.801788
