18

O      -0.143177   -0.002388    0.052397
C      -0.021655    1.201289    0.112045
C       1.259054    1.920682    0.030266
C       1.251521    3.264651    0.063178
C       2.496908    4.048860   -0.043946
N       3.612591    3.654714    0.869515
C       3.716107    3.347974   -0.557103
C       3.585759    1.891787   -0.953704
C       2.540577    1.139744   -0.105695
H      -0.909989    1.862975    0.230727
H       0.308045    3.800225    0.145382
H       2.388622    5.108410   -0.254461
H       4.161192    4.481313    1.093700
H       4.400807    3.943334   -1.158170
H       3.300366    1.856304   -2.012791
H       4.556687    1.391351   -0.869648
H       2.952690    0.957704    0.892422
H       2.320136    0.159836   -0.537098
