18

O      -0.146615    1.466949    0.358309
C       0.003934    0.090892    0.035082
C       0.649789   -0.702761    1.179580
C      -0.535015   -0.874703    2.133896
O      -1.678598   -1.030130    1.292609
C      -1.396640   -0.548548   -0.018321
C      -2.503616    0.418908   -0.466667
C      -3.801455   -0.241762   -0.578928
N      -4.827341   -0.762022   -0.686872
H       0.729504    1.853330    0.450516
H       0.530390   -0.029777   -0.920837
H       0.998111   -1.673897    0.812224
H       1.500193   -0.179525    1.625725
H      -0.454941   -1.757221    2.774914
H      -0.654738    0.011532    2.771552
H      -1.370521   -1.402735   -0.709705
H      -2.569193    1.242629    0.247428
H      -2.244136    0.851470   -1.439212
