20

C       0.011895    1.541591    0.056944
C       0.019296    0.026397   -0.062716
C       0.758651   -0.487573   -1.302120
C       0.853426   -2.019581   -1.287984
C       1.461380   -2.496310    0.035823
C       0.711458   -1.874373    1.228796
O       0.642296   -0.467125    1.137236
C      -0.639919   -2.471582    1.378343
N      -1.691642   -2.937644    1.490401
H       1.034979    1.927234    0.104992
H      -0.488010    1.987938   -0.807710
H      -0.515716    1.851192    0.962649
H      -1.018510   -0.343178   -0.088914
H       0.240352   -0.139840   -2.202442
H       1.765551   -0.050275   -1.316360
H      -0.147817   -2.452610   -1.406628
H       1.454401   -2.378799   -2.129130
H       1.447097   -3.587559    0.117890
H       2.504656   -2.169618    0.111095
H       1.254146   -2.079916    2.157635
