21

O      -0.151982    1.446433   -0.120376
C      -0.030973    0.073294    0.012212
C      -0.258239   -0.870400   -1.133683
C      -1.153848   -0.949299    0.085544
C      -0.424456   -1.695726    1.216823
C       0.718181   -0.617691    1.156908
C      -1.166022   -1.755142    2.526431
C      -2.038818   -2.940047    2.857898
C      -0.742703   -2.724324    3.601420
H       0.552360    1.757686   -0.699369
H      -0.722345   -0.410078   -2.000583
H       0.441494   -1.672962   -1.361959
H      -2.225847   -0.809140    0.014119
H      -0.098296   -2.705262    0.935209
H       1.735934   -0.965949    0.948681
H       0.728380   -0.003542    2.060921
H      -1.528101   -0.789575    2.873154
H      -2.970899   -2.766190    3.384202
H      -2.080253   -3.753918    2.141050
H       0.083005   -3.393544    3.381707
H      -0.788258   -2.403000    4.636072
