23

C      -1.074146    1.301369    0.920883
C       0.009504    0.494632    0.185603
N       0.913460   -0.127901    1.149880
C       2.327287   -0.358767    0.773684
C       3.085912    0.955115    0.484812
C       2.967641   -1.059218    1.982408
C       2.397843   -1.286183   -0.448928
C      -0.644499   -0.532160   -0.655490
N      -1.176080   -1.310528   -1.324038
H      -0.611086    2.136955    1.454482
H      -1.807648    1.701228    0.217763
H      -1.593417    0.663590    1.641250
H       0.526390    1.177067   -0.508000
H       0.886789    0.411019    2.008223
H       3.059419    1.619928    1.355701
H       4.136510    0.756036    0.249301
H       2.662550    1.495338   -0.368271
H       2.443696   -1.992320    2.204994
H       4.020606   -1.283536    1.788078
H       2.924012   -0.422839    2.874378
H       1.991811   -0.815025   -1.348902
H       3.439980   -1.545455   -0.658602
H       1.838355   -2.207786   -0.270013
