19

C       0.080316    1.441085   -0.047778
C       1.321997    0.645442    0.043512
N      -0.047335   -0.017890    0.098411
C       0.231504   -0.577658   -1.271765
C       1.668092    0.004253   -1.293871
C       2.258422    0.718242   -2.536685
N       3.332856   -0.324987   -2.708631
C       4.125882   -0.266434   -1.469279
C       2.828788   -0.972104   -1.427393
H      -0.232662    1.985506    0.837861
H      -0.202822    1.906408   -0.990715
H       1.975688    0.678034    0.910264
H       0.204799   -1.669760   -1.245010
H      -0.461271   -0.220691   -2.042754
H       1.587342    0.709318   -3.398977
H       2.647093    1.732955   -2.393355
H       5.024989   -0.873479   -1.510840
H       4.246152    0.689804   -0.962392
H       2.753603   -2.050711   -1.321171
