17

C      -0.162494    1.363439   -0.624264
C      -0.038863    0.026709   -0.072146
C       0.056948   -1.084262    0.390419
C       0.199417   -2.417676    0.921608
O      -0.630500   -2.934554    1.638602
C       1.482496   -3.157252    0.496456
C       1.715750   -4.403886    1.354455
C       1.338210   -3.537508   -0.977412
O       1.886018   -2.979078   -1.888992
H       0.391058    1.454478   -1.564359
H      -1.210524    1.617464   -0.813499
H       0.239773    2.104323    0.075601
H       2.314952   -2.449036    0.551542
H       2.644853   -4.903004    1.065227
H       1.777419   -4.134065    2.411155
H       0.887867   -5.109037    1.246490
H       0.660615   -4.405187   -1.147111
