17

C       0.011400    1.510789   -0.257532
C       0.033781    0.029256    0.001541
O       1.307025   -0.630844    0.026016
C       0.548717   -0.594242    1.243174
C       1.165056    0.162569    2.350560
C       0.804771    0.356103    3.671652
C       1.830840    1.165414    4.203837
N       2.763356    1.450235    3.298049
N       2.330769    0.836706    2.181563
H       0.732508    2.042557    0.366314
H       0.241466    1.714768   -1.308344
H      -0.986613    1.910659   -0.049598
H      -0.727521   -0.542416   -0.532931
H       0.112294   -1.550252    1.533786
H      -0.070355   -0.027716    4.170532
H       1.927781    1.548505    5.209159
H       2.887761    0.839900    1.342728
