19

C       0.012457    1.537493   -0.005412
C      -0.062656    0.006568   -0.023575
C      -1.468989   -0.518668    0.055271
C      -2.559856   -0.327911    1.156484
C      -3.201403   -1.129821   -0.003116
N      -2.518695   -0.239082   -1.021537
C      -1.925158   -2.017713   -0.031390
C      -1.613513   -2.761596   -1.239426
N      -1.337569   -3.402177   -2.161287
H       1.051372    1.873373   -0.062714
H      -0.522460    1.968362   -0.857710
H      -0.421556    1.949340    0.911701
H       0.393305   -0.381631   -0.941808
H       0.509441   -0.409164    0.815298
H      -2.418084   -0.822206    2.123597
H      -2.931006    0.692811    1.277284
H      -4.231313   -1.463173   -0.125690
H      -2.866453    0.718276   -0.909809
H      -1.742328   -2.622180    0.858778
