17

C       0.385770    1.385416    0.059258
C      -0.113720   -0.058309   -0.015352
O      -1.529846   -0.110197   -0.088155
C       0.556141   -0.836583   -1.175118
O       1.772579   -1.370515   -0.637626
C       1.688197   -1.450808    0.730077
N       2.597572   -1.908310    1.474430
C       0.356966   -0.898567    1.180628
H       1.477226    1.421230    0.130284
H       0.094246    1.944261   -0.838578
H      -0.036176    1.888797    0.933596
H      -1.826024    0.557444   -0.715627
H      -0.103984   -1.651076   -1.496408
H       0.813039   -0.216032   -2.038453
H       3.388822   -2.230204    0.913613
H       0.446837   -0.348190    2.117301
H      -0.351832   -1.719643    1.333603
