16

N       0.080274   -1.153015    0.057077
C       0.008268    0.003807    0.021805
C      -0.034885    1.417108   -0.043743
C      -1.122788    2.202138    0.075551
C      -0.714122    3.623755    0.022028
C       0.484390    4.094070    0.899425
C       1.337272    2.929432    1.380022
C       1.204678    2.299753   -0.063130
C       0.684083    3.695563   -0.540526
H      -2.138766    1.859704    0.222557
H      -1.431086    4.399413   -0.217211
H       0.444472    5.083815    1.337552
H       2.362884    3.263429    1.552667
H       0.997691    2.323079    2.225323
H       2.100159    1.865993   -0.501256
H       0.984925    4.265493   -1.410687
