23

C       0.037227    1.452112   -0.272740
C       0.003339    0.023575    0.286478
C      -1.361643   -0.617609    0.144577
C      -1.870007   -1.280670   -1.119461
C      -0.871937   -1.758354   -2.176963
C      -0.059612   -2.812135   -1.453317
C      -0.491102   -2.999765   -0.204457
C      -1.646605   -2.114823    0.142816
C      -2.763959   -2.673949    0.994216
H       1.029312    1.900049   -0.156196
H      -0.215322    1.466043   -1.338253
H      -0.681792    2.098450    0.243061
H       0.763423   -0.586139   -0.210716
H       0.279660    0.044034    1.349243
H      -2.139855   -0.052319    0.657797
H      -2.877075   -1.038360   -1.441848
H      -1.387447   -2.177010   -3.051661
H      -0.237064   -0.947810   -2.560313
H       0.788079   -3.312359   -1.908926
H      -0.066746   -3.700556    0.507316
H      -2.416409   -2.903024    2.009049
H      -3.587637   -1.958518    1.083387
H      -3.167918   -3.598649    0.566000
