16

C      -0.032082    1.555368    0.106506
C      -0.007739    0.033209   -0.025660
O       0.785778   -0.589992    0.962747
C      -1.443658   -0.528764   -0.026002
N      -1.455493   -1.979731   -0.108717
N      -1.336629   -2.660342   -1.237552
N      -1.322662   -3.908446   -0.879871
N      -1.428622   -3.981437    0.460721
N      -1.507538   -2.779354    0.944349
H       0.990433    1.939455    0.108901
H      -0.576564    2.021828   -0.720744
H      -0.514921    1.859960    1.043225
H       0.460748   -0.247189   -0.975601
H       0.444367   -0.354557    1.833352
H      -1.964036   -0.267873    0.899291
H      -2.013053   -0.145704   -0.875346
