21

C      -0.024764    1.517485    0.182703
C       1.409603    2.140922    0.074920
C       1.742299    2.640154   -1.311251
C       2.173389    1.935232   -2.360129
C       2.386212    0.447822   -2.408122
O       1.342151   -0.226462   -3.115249
C       0.040997   -0.087340   -2.538713
C      -0.033238   -0.666516   -1.153422
C      -0.041699    0.019205   -0.007728
H      -0.425672    1.741019    1.176483
H      -0.681122    2.018303   -0.535362
H       1.472732    2.986117    0.767709
H       2.140772    1.403401    0.419442
H       1.568305    3.704880   -1.462668
H       2.324019    2.455298   -3.304323
H       3.292442    0.206281   -2.972639
H       2.495071    0.033703   -1.397914
H      -0.269587    0.964987   -2.541759
H      -0.615423   -0.636176   -3.221478
H      -0.004710   -1.753429   -1.103770
H      -0.022801   -0.554883    0.917965
