15

C       0.022571    1.465240   -0.049511
C      -0.069489   -0.023352    0.000450
N      -1.195527   -0.650087   -0.088690
C      -1.107160   -2.028578   -0.024776
C      -2.412743   -2.750603   -0.128295
N      -0.013949   -2.722038    0.113651
C       1.182681   -2.058693    0.208472
O       2.269963   -2.524766    0.337227
O       1.112169   -0.619495    0.143967
H       0.665087    1.769467   -0.881695
H      -0.971885    1.892483   -0.167780
H       0.486874    1.839183    0.868370
H      -2.903042   -2.486052   -1.071136
H      -2.263143   -3.827714   -0.070209
H      -3.079815   -2.416526    0.673413
