18

C       0.211336    1.398613    0.176610
O      -0.306641    0.137816   -0.198173
C       0.432735   -0.487886   -1.199278
C       1.669248   -1.384101   -0.871695
C       0.738097   -2.399679   -0.178942
C       0.079541   -1.963193   -1.518684
C      -1.104980   -2.522786   -2.239223
O       1.420626   -2.056084   -2.162986
H       1.214803    1.314073    0.618543
H       0.268593    2.081982   -0.683853
H      -0.468595    1.820516    0.920027
H       0.572998    0.143798   -2.086334
H       2.699541   -1.112703   -0.643130
H       1.107276   -3.426291   -0.163493
H       0.246252   -2.094980    0.745708
H      -2.015296   -2.327298   -1.664142
H      -1.209664   -2.056996   -3.223861
H      -1.002448   -3.603720   -2.373048
