21

C      -0.120079    1.438825   -0.091734
C       0.095061   -0.057012   -0.031108
C       1.486840   -0.645432   -0.134845
C       0.739454   -0.695267    1.163146
C       1.101416   -0.074127    2.509956
O       0.630952   -1.255886    3.203316
C       0.292838   -1.893167    1.967924
C      -0.903382   -2.775757    1.838516
C       0.505555   -3.354383    1.752563
H       0.704112    1.978455    0.387136
H      -0.182569    1.786725   -1.128480
H      -1.046245    1.731046    0.415451
H      -0.694356   -0.644791   -0.495534
H       1.622100   -1.572026   -0.684380
H       2.325321    0.041740   -0.209315
H       2.169963    0.100598    2.686469
H       0.533576    0.818617    2.799949
H      -1.469657   -2.971083    2.742950
H      -1.499187   -2.719331    0.932670
H       0.872080   -3.691394    0.787748
H       0.862420   -3.929753    2.600143
