20

C       0.276478    1.529173    0.176273
C      -0.104074    0.071347   -0.094556
C       0.695895   -0.551464   -1.243322
C       0.315629   -2.014394   -1.513648
C       1.103812   -2.601135   -2.655353
O       2.466916   -2.953012   -2.403743
C       1.556215   -4.010365   -2.705182
C       1.252106   -4.935025   -1.633589
N       0.997826   -5.692735   -0.798537
H       1.335591    1.618746    0.441589
H       0.103108    2.154298   -0.706712
H      -0.309595    1.947146    1.000380
H       0.047889   -0.524305    0.814874
H      -1.176241    0.006872   -0.323194
H       0.545016    0.041026   -2.156452
H       1.768469   -0.500188   -1.017740
H       0.476130   -2.618016   -0.614045
H      -0.752268   -2.084861   -1.759883
H       0.954030   -2.125893   -3.627120
H       1.703217   -4.488119   -3.672341
