20

O      -0.971886    0.838992   -0.941592
C      -0.414770    0.042817    0.102159
C      -1.419448   -1.059357    0.433807
C      -1.514743   -2.156328   -0.617891
C      -0.419528   -3.224235   -0.566073
C      -0.430845   -4.009026    0.664286
C      -0.451809   -4.641397    1.686759
C      -2.852186   -2.537368   -1.139714
N      -1.903664   -1.799713   -1.991375
H      -0.283691    1.409907   -1.294563
H       0.549347   -0.389797   -0.204209
H      -0.229982    0.654740    0.998099
H      -1.152714   -1.510535    1.395925
H      -2.396045   -0.579985    0.565295
H      -0.543001   -3.879311   -1.434957
H       0.563178   -2.748295   -0.686815
H      -0.467564   -5.210715    2.582761
H      -3.044382   -3.561815   -1.448370
H      -3.720454   -2.016697   -0.743661
H      -2.130120   -0.809189   -2.023154
