21

C       0.001351    1.525707    0.001816
C       0.028547    0.015894    0.037044
C       0.980836   -0.820168   -0.882235
C       0.695119   -1.922017    0.161290
O       1.519638   -3.034925    0.263887
C       0.646434   -0.779065    1.226576
C      -0.795293   -2.202654   -0.076060
O      -1.269907   -2.970742    1.024087
C      -1.312316   -0.735469   -0.157007
H       1.003146    1.945466    0.140838
H      -0.385475    1.893634   -0.955942
H      -0.641872    1.927142    0.793618
H       0.683040   -0.998255   -1.920886
H       2.015512   -0.472750   -0.836890
H       1.044595   -3.675153    0.808680
H       1.649970   -0.434150    1.485642
H       0.039744   -0.930425    2.122350
H      -0.943210   -2.756830   -1.012959
H      -2.164495   -3.265461    0.831343
H      -2.025726   -0.526992    0.647040
H      -1.789188   -0.502082   -1.114833
