19

O       0.033086    1.501729   -0.252723
C       0.082665    0.092439   -0.087224
C      -1.318605   -0.506527    0.074353
C      -1.363587   -2.051509    0.043628
O      -0.691743   -2.577908   -1.101317
C      -0.627656   -2.686689    1.250128
O      -1.155436   -2.261427    2.487136
C      -2.767198   -2.495846    0.077192
C      -3.913318   -2.859595    0.122631
H      -0.307603    1.881779    0.563387
H       0.552411   -0.302963   -0.991229
H       0.724609   -0.181578    0.762391
H      -1.760898   -0.177015    1.021201
H      -1.951408   -0.116777   -0.731361
H      -1.203861   -2.342463   -1.882663
H      -0.664390   -3.777289    1.128222
H       0.420995   -2.381347    1.227938
H      -2.069026   -2.568160    2.528516
H      -4.925916   -3.180972    0.144658
