23

C      -0.114502    1.568708    0.084696
C      -0.056798    0.042569   -0.015389
C       0.723649   -0.451755   -1.241005
O       2.065569    0.039788   -1.240265
C       0.704711   -1.972627   -1.354153
C      -0.629923   -2.651790   -1.730780
O      -0.056217   -3.251789   -2.904379
C       1.241203   -2.651576   -2.648866
C       1.722665   -1.806753   -3.812567
H       0.893195    1.992003    0.077969
H      -0.659558    1.997480   -0.763347
H      -0.618880    1.887446    1.001625
H       0.413102   -0.375964    0.887316
H      -1.072254   -0.372145   -0.047781
H       0.276432   -0.012607   -2.141453
H       2.501233   -0.306999   -0.453013
H       1.156125   -2.395343   -0.448971
H      -1.005098   -3.400155   -1.021787
H      -1.451256   -1.965311   -1.980837
H       1.981572   -3.434759   -2.434256
H       0.980530   -1.053648   -4.091806
H       2.653923   -1.295686   -3.554515
H       1.895884   -2.446708   -4.683420
