21

C       0.171821    1.509907   -0.168820
C       0.086705   -0.001469    0.067537
C      -1.342387   -0.526442    0.077648
C      -2.144030   -0.540687   -1.255532
C      -2.711118   -1.946031   -0.877316
N      -2.673165   -2.940997   -1.943636
C      -1.569523   -2.059173    0.182752
C      -4.034917   -1.843929   -0.239656
N      -5.089411   -1.795153    0.234616
H       1.210893    1.852424   -0.176487
H      -0.276132    1.788561   -1.128912
H      -0.356244    2.063368    0.615420
H       0.656326   -0.530230   -0.708609
H       0.565997   -0.252339    1.023067
H      -1.920419   -0.009387    0.851777
H      -2.865178    0.256799   -1.440408
H      -1.487959   -0.655223   -2.122861
H      -2.935080   -3.852573   -1.574924
H      -3.367204   -2.714333   -2.652472
H      -0.743566   -2.624653   -0.257195
H      -1.827992   -2.479649    1.155951
