18

N       0.008068   -1.162537   -0.154505
C      -0.011485   -0.011351   -0.054194
C      -0.006226    1.445877    0.070804
C       1.415123    2.041526    0.044832
C       2.182332    1.746613   -1.270327
O       3.063270    2.843361   -1.488543
C       2.522006    3.971658   -0.853273
C       1.088559    4.341923   -1.126564
C       1.462536    3.559970    0.126721
H      -0.605248    1.869683   -0.743271
H      -0.509937    1.714673    1.005732
H       1.975493    1.634928    0.893816
H       2.779135    0.832885   -1.227809
H       1.476289    1.645683   -2.108230
H       3.271409    4.729173   -0.659271
H       0.809179    5.380488   -0.987447
H       0.561178    3.846439   -1.935055
H       1.358569    4.031788    1.096732
