21

C       0.901075    1.345724   -0.194433
C      -0.002128    0.141929    0.060822
O       0.029840   -0.778022   -1.033922
C       0.857513   -1.905852   -0.727030
C       1.405386   -1.674630    0.669546
C       2.106920   -2.736095    1.461382
C       2.882051   -1.547117    0.943212
C       0.413069   -0.705085    1.290220
O       0.995992    0.010162    2.362438
H       1.949054    1.043606   -0.271208
H       0.608664    1.829571   -1.130382
H       0.818440    2.073892    0.617846
H      -1.041917    0.482542    0.151959
H       0.239238   -2.814053   -0.776524
H       1.651564   -1.999228   -1.478996
H       1.910634   -2.778673    2.527923
H       2.268165   -3.702399    0.993542
H       3.563064   -1.702644    0.112530
H       3.196507   -0.801805    1.663377
H      -0.465748   -1.267817    1.642481
H       0.292446    0.437474    2.859233
