20

C       0.128362    1.499988    0.175969
C      -0.213223    0.043533   -0.155962
C       0.616882   -0.524025   -1.312403
C       0.355223    0.159258   -2.646189
O       2.045261   -0.487461   -0.989548
C       2.097701   -1.912739   -0.799231
C       0.668728   -2.077996   -1.356191
O      -0.294562   -2.722315   -0.558617
H       1.203795    1.607081    0.343465
H      -0.160476    2.186750   -0.625721
H      -0.392576    1.818936    1.083643
H      -0.046457   -0.581256    0.726283
H      -1.276604   -0.059673   -0.402652
H       0.595293    1.224717   -2.596107
H       0.972881   -0.286178   -3.431279
H      -0.698204    0.056948   -2.929102
H       2.918712   -2.373975   -1.360897
H       2.175432   -2.194312    0.259791
H       0.652107   -2.459633   -2.384970
H      -0.237193   -3.669574   -0.714022
