21

C       0.115179    1.345905    0.387327
C       0.040578   -0.146796    0.117485
O       1.030529   -0.841354    0.100232
C      -1.363998   -0.725042   -0.118413
C      -1.340300   -2.179039   -0.649136
C      -1.587093   -3.077569    0.586851
C      -2.186262   -2.135243    1.609799
C      -2.778443   -2.637101    2.888091
C      -2.080572   -0.864047    1.215591
H       1.133364    1.626110    0.659826
H      -0.185202    1.897062   -0.511842
H      -0.578014    1.636654    1.183346
H      -1.898034   -0.039170   -0.789745
H      -2.151104   -2.309074   -1.371460
H      -0.397142   -2.405117   -1.148057
H      -2.249097   -3.923594    0.365416
H      -0.653265   -3.509588    0.970746
H      -2.035994   -3.199470    3.468838
H      -3.151983   -1.821693    3.513405
H      -3.608020   -3.329064    2.694960
H      -2.418483   -0.007734    1.789838
