20

C      -0.188647    1.461905   -0.218894
N       0.084019    0.053002    0.030875
C       1.370396   -0.568338   -0.147360
C       2.555817    0.297699    0.331611
C       1.933957    0.314717    1.758578
C       2.707249   -0.543614    2.770128
C       1.638983    1.645575    2.403918
O       2.074892    2.711441    2.046919
C       0.704800   -0.483548    1.211237
H       0.643386    2.144757   -0.014351
H      -0.473348    1.573055   -1.269837
H      -1.042252    1.766597    0.394559
H       1.448387   -1.418563   -0.816746
H       3.509182   -0.233692    0.299721
H       2.680235    1.271119   -0.147392
H       3.689822   -0.111246    2.983298
H       2.159876   -0.631647    3.715843
H       2.852564   -1.553351    2.373736
H       0.970878    1.570915    3.296226
H       0.177740   -1.240692    1.784938
