21

O      -0.087366    1.395349    0.030671
C       0.029675   -0.023224    0.003059
C       0.711572   -0.553766   -1.276512
C      -0.045676   -1.849212   -1.612457
C      -1.507037   -1.503465   -1.263711
C      -1.405130   -0.636593    0.007022
C      -1.458934   -1.413740    1.340313
O      -0.461272   -0.842769    2.173209
C       0.633035   -0.568837    1.318939
H       0.800691    1.767903    0.017853
H       0.556670    0.187230   -2.068598
H       1.791275   -0.699249   -1.160010
H       0.086614   -2.166102   -2.650726
H       0.310403   -2.670858   -0.979144
H      -1.951363   -0.921194   -2.078399
H      -2.134842   -2.389350   -1.122935
H      -2.132110    0.177044    0.016403
H      -2.417172   -1.330859    1.859042
H      -1.251644   -2.485049    1.169969
H       1.215308   -1.487264    1.126612
H       1.283265    0.158751    1.813510
