20

C      -0.080771    1.584551   -0.029365
C       0.119704    0.067398   -0.036505
C       0.994377   -0.433836   -1.203942
C       1.072564   -1.950901   -1.194601
N       2.386684   -2.554560   -0.915191
C       1.335656   -2.593018    0.121263
C       1.534249   -1.679055    1.318153
C       0.641935   -0.432997    1.318882
O       0.372729    0.132790    2.353119
H       0.882991    2.103912    0.008695
H      -0.604145    1.910763   -0.933225
H      -0.657282    1.889289    0.845645
H      -0.867693   -0.412030   -0.139863
H       0.587048   -0.067920   -2.152129
H       2.006379   -0.023568   -1.115600
H       0.414309   -2.472779   -1.885206
H       2.457018   -3.461093   -1.370526
H       0.864587   -3.551305    0.322994
H       1.388340   -2.193688    2.270914
H       2.570274   -1.315237    1.311972
