20

C      -0.535798    1.432435   -0.088197
C       0.079665    0.040191   -0.070433
C       1.494325   -0.177475   -0.676545
C       1.793375   -1.185424    0.465714
C       0.593796   -0.599936    1.264717
C       1.010922    0.406485    2.352577
C       1.655072   -0.241370    3.489615
C       2.182729   -0.800120    4.414262
H       0.130398    2.179247    0.356413
H      -0.739390    1.749151   -1.117177
H      -1.485153    1.462545    0.458757
H      -0.619787   -0.664781   -0.534086
H       1.550826   -0.542416   -1.705105
H       2.110415    0.724705   -0.601888
H       1.615621   -2.219855    0.160424
H       2.772566   -1.132353    0.947762
H      -0.077645   -1.335235    1.716479
H       1.694431    1.155588    1.931744
H       0.130323    0.961358    2.700790
H       2.648882   -1.282294    5.237149
