17

O       0.033721    1.442790    0.080125
C       0.067628    0.026396    0.011047
C       0.588655   -0.557726    1.326401
C      -0.402868   -0.991589    2.126470
C      -1.674232   -0.775698    1.451233
C      -2.936564   -0.421558    1.684280
C      -3.517706    0.114827    0.389700
O      -2.392025    0.265994   -0.499399
C      -1.360121   -0.574227   -0.009036
H      -0.854650    1.692027   -0.212006
H       0.668809   -0.286926   -0.852756
H       1.638874   -0.526500    1.592820
H      -0.284243   -1.364936    3.136190
H      -3.471746   -0.403287    2.624270
H      -4.262730   -0.559581   -0.063786
H      -3.992860    1.095453    0.513861
H      -1.344226   -1.532151   -0.553580
