20

C       0.023481    1.478031    0.075796
C      -0.027336   -0.028840   -0.039325
C       0.638087   -0.649044   -1.292509
C       0.103832   -2.116836   -1.268943
C      -0.757971   -2.139744    0.015998
C       0.184768   -1.963092    1.216416
O       0.631782   -0.600961    1.113763
C      -1.395208   -0.736226   -0.015723
H       1.060353    1.828201    0.085051
H      -0.488916    1.946838   -0.769801
H      -0.453698    1.808836    1.002661
H       0.344013   -0.120737   -2.205153
H       1.725580   -0.589800   -1.204654
H      -0.509885   -2.331781   -2.149004
H       0.905443   -2.860461   -1.240510
H      -1.432194   -2.993143    0.102470
H      -0.329285   -2.107844    2.176788
H       1.045827   -2.643279    1.183065
H      -1.977899   -0.490272    0.876474
H      -1.996542   -0.552126   -0.910542
