19

C       0.874011    0.094342    1.168602
C      -0.130905    0.087090   -0.003362
C      -0.638293    1.442019   -0.250185
N      -1.018009    2.519554   -0.423644
C       0.531009   -0.458563   -1.274282
C       0.832335   -1.964315   -1.491586
C      -0.680306   -2.113114   -1.757534
N      -0.357583   -0.794820   -2.492610
C       0.888143   -1.561437   -2.981916
H       1.208278   -0.925722    1.376540
H       1.749362    0.703959    0.927570
H       0.414545    0.500950    2.072294
H      -0.990012   -0.526612    0.283245
H       1.340749    0.223170   -1.557132
H       1.506285   -2.620915   -0.930003
H      -0.998510   -2.910049   -2.433926
H      -1.388762   -2.014207   -0.934385
H       1.699843   -0.909444   -3.314775
H       0.656134   -2.326536   -3.726130
