15

C      -0.011720    1.523480    0.010339
C      -0.008905    0.014314    0.002221
C      -0.003862   -0.696552   -1.201607
C       0.026948   -2.088427   -1.212299
C       0.050969   -2.796919   -0.013421
C       0.041477   -2.101516    1.193264
C       0.010630   -0.709578    1.198069
H       1.009605    1.924510    0.002531
H      -0.523044    1.929008   -0.867792
H      -0.505903    1.919494    0.902488
H      -0.026632   -0.151361   -2.140845
H       0.028062   -2.620188   -2.158370
H       0.071805   -3.881522   -0.019448
H       0.053995   -2.643517    2.133423
H      -0.000765   -0.174625    2.143378
