14

C       0.062181    1.361334   -0.068754
O      -0.033356   -0.061104   -0.101642
C      -1.235010   -0.608155    0.009720
C      -2.412756    0.047393    0.154920
N      -3.611517   -0.641706    0.261675
N      -3.722809   -1.859297    0.236705
O      -2.473618   -2.655094    0.079691
C      -1.240661   -2.081665   -0.034255
N      -0.174588   -2.753759   -0.168119
H       1.122007    1.589521   -0.174640
H      -0.499060    1.808934   -0.896553
H      -0.309586    1.755046    0.883804
H      -2.509756    1.121478    0.197734
H      -0.386854   -3.752969   -0.175756
