23

C      -0.980545    0.702994   -1.455052
C       0.159472   -0.217331   -1.042442
C       1.620677    0.182325   -1.379301
C       2.073165   -0.470574   -0.046549
C       3.212776    0.154123    0.744132
C       0.591785   -0.372491    0.458350
C       0.299521    0.826297    1.372416
C      -1.135144    0.854382    1.847486
O      -1.881878    1.794704    1.757139
H      -0.855155    1.717505   -1.064929
H      -1.033451    0.772712   -2.547388
H      -1.949257    0.333636   -1.101502
H      -0.031773   -1.221121   -1.439237
H       2.054327   -0.195155   -2.309166
H       1.752596    1.270302   -1.355221
H       2.299616   -1.528005   -0.225112
H       3.043549    1.219349    0.932782
H       3.352768   -0.340222    1.712485
H       4.155052    0.065615    0.192141
H       0.218855   -1.278419    0.950492
H       0.922252    0.732729    2.275098
H       0.533609    1.788521    0.909084
H      -1.473636   -0.099581    2.319307
