16

C       0.169072    1.557966   -0.057637
C       0.013490    0.077502   -0.095749
C       0.758677   -0.996071   -0.810926
C      -0.411730   -1.991723   -0.653254
C      -0.285107   -1.825516    0.811984
N       0.892937   -0.869433    0.688485
C      -1.213307   -0.860048    0.070759
C      -2.662316   -0.759450    0.169616
O      -3.393945   -1.715713    0.322102
H       1.230369    1.820318   -0.103643
H      -0.341128    2.032022   -0.903089
H      -0.242667    1.972738    0.868908
H       1.613206   -0.961652   -1.475795
H      -0.842061   -2.775758   -1.259059
H      -0.510515   -2.460236    1.658855
H      -3.070451    0.273857    0.101890
