19

C      -0.101051    1.513245    0.000012
C      -0.027263    0.059547    0.004433
C       0.034844   -1.143525    0.030280
C       0.063114   -2.605949    0.010533
O      -1.236380   -3.173349    0.172532
C       0.738364   -3.154666   -1.268965
C       2.227632   -2.780608   -1.347637
C       0.596060   -4.667420   -1.281874
O       0.235049   -5.314148   -2.229082
H       0.768311    1.953249    0.500476
H      -0.134721    1.909928   -1.020375
H      -0.996980    1.863039    0.524219
H       0.627146   -2.970568    0.879645
H      -1.812570   -2.774978   -0.489883
H       0.210820   -2.766603   -2.147195
H       2.664052   -3.125455   -2.288657
H       2.348488   -1.696096   -1.283338
H       2.792999   -3.233661   -0.524917
H       0.899880   -5.159847   -0.327834
