16

O      -0.010809    0.004438    0.000388
C       0.010414    1.202419   -0.004178
C      -1.240499    2.164468   -0.063674
C      -0.428712    3.437924   -0.033657
C      -0.215581    4.957871   -0.031153
N       1.245274    4.462211    0.035493
C       0.778031    3.298838    0.934173
C       1.245107    2.128304    0.046066
C       0.858460    3.290568   -0.890249
H      -1.812471    1.984423   -0.978434
H      -1.890811    1.992471    0.798801
H      -0.444823    5.513501   -0.945585
H      -0.524176    5.521662    0.854495
H       0.775475    3.382861    2.021739
H       2.223662    1.655389    0.091350
H       0.951648    3.364745   -1.974537
