21

C       0.083067    1.405723   -0.847882
C       0.101798   -0.100833   -0.610937
C       1.232924   -0.827110   -1.301172
O       2.073773   -0.243075   -1.956754
C       1.232031   -2.361104   -1.198038
O       0.556809   -2.862238   -2.342911
C       1.349209   -3.599052   -3.270496
C       2.291101   -2.754781   -4.129160
O       3.401727   -2.250433   -3.419121
H       1.010656    1.867195   -0.499854
H      -0.012452    1.630621   -1.913208
H      -0.754336    1.869382   -0.319839
H       0.167751   -0.341908    0.460521
H      -0.829390   -0.580408   -0.945643
H       2.264962   -2.717748   -1.143503
H       0.684265   -2.687207   -0.304318
H       1.934328   -4.365644   -2.741381
H       0.624035   -4.104099   -3.918908
H       2.679888   -3.402815   -4.925966
H       1.713132   -1.952114   -4.611141
H       3.119079   -1.440769   -2.963341
