19

C      -0.050227    1.508500    0.019783
C       0.068893    0.011651    0.028767
O      -0.769110   -0.703563    0.948382
C       0.652085   -0.831245    1.075662
C       1.320480   -2.031404    0.317785
C       1.841293   -1.244201   -0.921365
C       0.413023   -0.758323   -1.305781
C      -0.320340   -2.089853   -1.302499
C       0.218350   -2.846051   -0.342823
H       0.819670    1.965392   -0.464397
H      -0.942202    1.823135   -0.533877
H      -0.128307    1.897076    1.038446
H       1.079572   -0.462152    2.003790
H       2.051605   -2.580095    0.911141
H       2.517751   -0.423905   -0.655157
H       2.306781   -1.879465   -1.679806
H       0.314246   -0.144640   -2.201532
H      -1.187803   -2.316073   -1.908435
H      -0.119187   -3.815474   -0.000827
