21

C      -0.082659    1.498892    0.086338
C      -0.038655   -0.001840    0.009245
C      -0.034109   -0.667825   -1.148375
C       0.072034   -2.169579   -1.284372
C       1.408895   -2.746585   -0.775245
C       1.565197   -2.766502    0.761045
C       1.417389   -1.418004    1.454309
O       2.328359   -0.904916    2.062292
C       0.052999   -0.735240    1.341750
H       0.800083    1.885014    0.611436
H      -0.119441    1.954275   -0.906830
H      -0.957321    1.840168    0.654967
H      -0.085107   -0.096202   -2.072288
H      -0.754741   -2.663892   -0.751626
H      -0.045959   -2.441256   -2.337792
H       1.514083   -3.778856   -1.129765
H       2.235127   -2.177136   -1.215798
H       0.800313   -3.436585    1.179346
H       2.545871   -3.166480    1.032131
H      -0.042729   -0.036254    2.174856
H      -0.745995   -1.482952    1.419321
