18

C       0.009701    1.556197   -0.051453
N       1.238047    0.723612    0.055146
C      -0.065536    0.090806    0.002014
C      -0.525259   -0.943937    1.030065
C      -2.035816   -0.847619    1.297463
C      -2.762908   -0.777426   -0.031877
C      -2.056392   -0.816698   -1.162308
C      -0.555183   -0.961726   -1.000388
O      -0.305353   -1.978245    0.020664
H      -0.206269    2.159220    0.826668
H      -0.212659    2.044501   -0.997664
H       1.704727    0.667139   -0.847568
H       0.084622   -1.091363    1.924352
H      -2.373772   -1.716271    1.877484
H      -2.256517    0.038746    1.907727
H      -3.846376   -0.703142   -0.029029
H      -2.504920   -0.754632   -2.147803
H       0.001086   -1.143715   -1.923636
