17

O      -0.085588    1.405929   -0.034196
C      -0.036737    0.012741    0.018481
C      -0.511471   -0.706068    1.239838
C      -1.383449   -0.663786   -0.009153
C      -2.696673    0.087031   -0.123798
O      -3.656378   -0.895315   -0.536482
C      -3.002247   -1.881822   -1.308848
C      -1.554595   -1.910453   -0.815183
O      -0.721546   -2.754780   -1.034965
H       0.634906    1.753495    0.502109
H       0.746783   -0.460581   -0.573182
H      -0.057201   -1.661957    1.479719
H      -0.846642   -0.106326    2.079722
H      -3.050179    0.514958    0.816858
H      -2.623829    0.895059   -0.866354
H      -3.500052   -2.845712   -1.171334
H      -3.005897   -1.642143   -2.386700
