18

N       0.135758   -0.945628   -0.716098
C       0.102118    0.174048   -0.436612
C       0.020335    1.592558   -0.081536
O       1.325958    2.128402   -0.026756
C       1.334515    3.515348    0.278752
C       2.807070    3.967639    0.301297
C       2.915826    4.939258   -0.895973
C       1.653449    4.617234   -1.702771
O       0.680403    4.270108   -0.709716
H      -0.592814    2.115756   -0.826613
H      -0.490748    1.684680    0.890548
H       0.783121    3.680980    1.214381
H       3.059715    4.445407    1.249454
H       3.444373    3.089313    0.183632
H       2.886397    5.977704   -0.554632
H       3.831563    4.799138   -1.474175
H       1.255150    5.459177   -2.272485
H       1.818753    3.773168   -2.385909
