22

C      -0.300853    1.406198    0.075211
C       0.062911   -0.085151    0.063231
C       0.734309   -0.464000   -1.264282
C       0.933618   -0.479204    1.286291
C       0.169594   -0.413748    2.659910
C       0.016045   -1.955729    2.638713
C       1.065356   -2.032098    1.500800
C       2.205136    0.237794    1.267850
N       3.216321    0.800294    1.263936
H       0.596241    2.026111   -0.025083
H      -0.965636    1.641538   -0.761435
H      -0.810775    1.700682    0.997038
H      -0.863400   -0.667834    0.160918
H       1.662759    0.099261   -1.405151
H       0.977035   -1.529306   -1.316376
H       0.072001   -0.233133   -2.104131
H       0.812100   -0.061202    3.468641
H      -0.746349    0.180010    2.659068
H       0.264368   -2.480183    3.562860
H      -0.978116   -2.277751    2.320030
H       0.818803   -2.647707    0.633772
H       2.058430   -2.312913    1.855897
