25

C      -0.133188    1.572363   -0.004047
C      -0.018338    0.046493    0.012828
C       0.707270   -0.471614   -1.234309
O       0.847384   -1.882130   -1.236142
C       1.571551   -2.414664   -0.124618
C       3.071033   -2.101191   -0.218823
C       0.890912   -2.001925    1.200411
C       1.602157   -2.554005    2.439341
C       0.704045   -0.477169    1.263132
H       0.856982    2.043476   -0.011320
H      -0.675198    1.923943   -0.888755
H      -0.665916    1.936924    0.880363
H      -1.029340   -0.384493    0.000484
H       0.142571   -0.231271   -2.141226
H       1.688607    0.024960   -1.321116
H       1.455901   -3.499248   -0.239176
H       3.304179   -1.052560   -0.013705
H       3.635828   -2.711194    0.491583
H       3.424500   -2.336676   -1.226583
H      -0.112712   -2.447693    1.160302
H       2.584375   -2.091858    2.583350
H       1.012343   -2.357971    3.340918
H       1.749299   -3.637560    2.368124
H       1.681347    0.018878    1.354353
H       0.142284   -0.209153    2.166867
