22

C       0.094540    1.599647   -0.129471
C       0.100255    0.077745   -0.001104
C       0.694611   -0.662743   -1.228136
C       1.184436   -1.996635   -0.677829
N       2.496667   -1.877159   -0.007355
C       1.261901   -1.906128    0.800293
C       0.793387   -0.525791    1.275254
C       1.938108    0.311322    1.847970
O      -0.176258   -0.784908    2.297813
H       1.106658    2.000119   -0.247478
H      -0.486811    1.909975   -1.004230
H      -0.356894    2.081350    0.745747
H      -0.937053   -0.264399    0.099480
H      -0.060499   -0.794294   -2.008986
H       1.531570   -0.109472   -1.668833
H       0.941472   -2.924648   -1.185104
H       2.942093   -2.790758    0.037529
H       1.070536   -2.744676    1.461278
H       2.725235    0.460555    1.106400
H       1.580598    1.292236    2.181243
H       2.372996   -0.203365    2.709834
H      -0.438842    0.061862    2.672872
