14

C       0.017589    1.522678    0.217138
C      -0.037674    0.045728   -0.031833
C      -1.165982   -0.677163    0.060452
O      -1.208481   -2.017797   -0.167311
C      -0.047801   -2.686141   -0.511990
N      -0.022154   -3.933952   -0.737859
C       1.146205   -1.842126   -0.594915
N       1.167243   -0.576894   -0.375760
H       0.713040    1.749609    1.032276
H       0.381995    2.049463   -0.671274
H      -0.965582    1.922201    0.478588
H      -2.141125   -0.284662    0.319175
H      -0.949514   -4.347170   -0.630512
H       2.065607   -2.356611   -0.864083
