18

C       0.001797    1.438948    0.019096
N       0.011453   -0.010219    0.018241
C      -0.001842   -0.796898   -1.092754
C       0.013651   -2.122963   -0.692281
C       0.006471   -3.271131   -1.581679
O       0.020112   -4.432234   -1.228039
C       0.037406   -2.120110    0.736737
C       0.035731   -0.815215    1.154906
C       0.054943   -0.232372    2.528887
H       0.896109    1.839230    0.507444
H      -0.018470    1.794316   -1.012095
H      -0.880335    1.827328    0.538222
H      -0.021152   -0.363642   -2.081182
H      -0.013341   -3.007673   -2.665416
H       0.053669   -2.995593    1.366590
H       0.937396    0.395512    2.704797
H      -0.828308    0.385523    2.733728
H       0.071561   -1.038642    3.264955
