20

C      -0.013688    1.594717   -0.008936
C      -0.042499    0.055131   -0.017331
C      -1.487904   -0.469117    0.067690
C       0.677490   -0.503657   -1.215050
C       1.786848   -1.298119   -1.269028
C       2.677309   -1.895763   -0.237398
O       2.100277   -1.569766   -2.552641
N       1.184075   -0.946633   -3.394815
C       0.356605   -0.325783   -2.594634
H       1.012534    1.972445   -0.033064
H      -0.539643    2.001810   -0.879568
H      -0.503428    1.986318    0.888633
H       0.488240   -0.290730    0.878650
H      -2.074088   -0.146337   -0.799809
H      -1.512292   -1.562216    0.098168
H      -1.985627   -0.088698    0.965677
H       2.683573   -2.988368   -0.310679
H       3.709384   -1.552368   -0.364229
H       2.342918   -1.619564    0.764352
H      -0.457289    0.239459   -3.028196
