18

C      -0.129255    1.486986    0.031980
C       0.118694    0.011955    0.002610
N      -0.717325   -0.947271    0.763333
C       0.754057   -0.911782    0.982378
C       1.301870   -1.820967   -0.124615
O       0.851274   -3.134872   -0.137067
C       0.682072   -0.791193   -1.190442
C      -0.241243   -1.296831   -2.181581
C      -1.010636   -1.730640   -2.997785
H       0.736691    2.037936   -0.349911
H      -0.993366    1.750556   -0.588162
H      -0.326590    1.834079    1.052164
H      -1.156260   -0.436538    1.527999
H       1.164734   -0.721773    1.967020
H       2.391327   -1.842668   -0.186571
H      -0.104676   -3.084565    0.006411
H       1.497187   -0.236840   -1.667665
H      -1.689234   -2.112582   -3.719458
