12

O       0.033269   -0.005054    0.003076
C      -0.026103    1.198195    0.010152
C      -1.271466    2.104757    0.032230
C      -0.708966    3.496443    0.031685
C       0.632595    3.408278    0.012611
N       1.056264    2.068392   -0.000264
C       1.582830    4.464205    0.004962
N       2.371651    5.311231   -0.001546
H      -1.900944    1.888453   -0.838721
H      -1.876494    1.879265    0.918053
H      -1.275205    4.414019    0.044352
H       2.015181    1.761414   -0.015188
