22

C       0.126777    1.551802    0.008896
C       0.027371    0.023960    0.001851
C      -1.419802   -0.478949    0.012778
C      -1.523388   -2.003908    0.005788
C      -2.954284   -2.529484    0.016682
O      -3.910048   -1.786713    0.030307
C      -3.115560   -4.046038    0.009719
C      -4.571129   -4.506504    0.021025
H       1.169058    1.885744    0.000959
H      -0.368894    1.983572   -0.867558
H      -0.352488    1.974350    0.898865
H       0.545407   -0.372992   -0.881755
H       0.561805   -0.382143    0.871422
H      -1.944669   -0.088341    0.892328
H      -1.961013   -0.079210   -0.852658
H      -1.014193   -2.427186   -0.872284
H      -0.997769   -2.436218    0.869685
H      -2.582745   -4.436636   -0.868372
H      -2.566201   -4.446294    0.873156
H      -5.090793   -4.134180    0.907465
H      -5.107451   -4.124777   -0.851387
H      -4.631922   -5.598439    0.015746
