21

O      -0.718892    0.874623    0.829315
C       0.013119    1.019280   -0.115195
C       1.290517    1.826725   -0.112014
C       1.284476    2.915951   -1.199081
C       2.612703    3.675162   -1.289447
C       2.605869    4.765400   -2.364781
C       3.947299    5.521929   -2.447378
C       3.953992    6.560587   -3.470137
C       3.932152    7.410014   -4.320342
H      -0.224284    0.547745   -1.099121
H       1.432881    2.252408    0.885691
H       2.120309    1.131181   -0.307401
H       1.058802    2.458797   -2.171964
H       0.470690    3.623715   -0.996764
H       2.841594    4.124188   -0.313418
H       3.423814    2.962580   -1.493923
H       2.385908    4.324247   -3.344125
H       1.803821    5.485099   -2.163483
H       4.174306    5.969593   -1.470673
H       4.757050    4.807543   -2.646970
H       3.924952    8.163717   -5.067998
