20

C      -0.203714    1.257130   -0.782646
C       0.170471   -0.203269   -0.640327
C       1.572591   -0.807009   -0.585085
C       2.519593   -0.008883    0.306921
C       3.137342    1.311840   -0.110251
O       1.498959    0.090691    1.345919
C       0.656304   -0.831970    0.629186
C       0.002681   -1.912284    1.428771
H       0.092523    1.663833   -1.755624
H      -1.288853    1.377315   -0.691366
H       0.262247    1.854652    0.002989
H      -0.484423   -0.880558   -1.188010
H       1.876516   -1.610658   -1.244150
H       3.313465   -0.673550    0.677743
H       3.588131    1.804129    0.757996
H       3.932315    1.128668   -0.841564
H       2.410744    1.992104   -0.555920
H      -0.707816   -1.482610    2.144508
H      -0.548828   -2.593939    0.774768
H       0.742129   -2.488897    1.993720
