19

C      -0.096942    1.563405   -0.006956
C      -0.146608    0.038594   -0.121244
C       0.833805   -0.511514   -1.174525
C       0.811052   -2.015459   -1.248266
N       1.342072   -2.693899   -0.221797
C       1.293410   -4.023717   -0.288361
C       0.721459   -4.691664   -1.368003
N       0.190580   -4.030341   -2.397677
C       0.240715   -2.700499   -2.327608
H       0.903644    1.906744    0.278148
H      -0.352312    2.043130   -0.958491
H      -0.801377    1.926294    0.747768
H       0.092185   -0.421515    0.843955
H      -1.164414   -0.283398   -0.375362
H       0.597355   -0.089710   -2.158266
H       1.849852   -0.189994   -0.917357
H       1.727086   -4.575813    0.542191
H       0.692489   -5.777486   -1.404765
H      -0.185909   -2.149924   -3.163263
