21

C      -0.181289    1.570864   -0.173148
C      -0.006454    0.053945   -0.061550
C      -1.211498   -0.619023    0.711224
C      -0.355602   -0.587293    2.032300
C       0.829488   -0.434966    1.103686
C       1.948672   -1.063999    0.738190
C       2.047760   -1.085496   -0.757909
C       1.006862   -1.986980   -1.398023
C       0.713158   -0.516676   -1.276278
H       0.762488    2.050814   -0.451653
H      -0.927088    1.817304   -0.938410
H      -0.515423    2.010917    0.771797
H      -2.150131   -0.058471    0.721780
H      -1.398121   -1.642193    0.379462
H      -0.575207    0.301009    2.632631
H      -0.381416   -1.466025    2.680207
H       2.597038   -1.656785    1.374521
H       2.987493   -0.924443   -1.276079
H       1.209474   -2.351450   -2.400257
H       0.489702   -2.696445   -0.759820
H       0.702319    0.059027   -2.195549
