10

O      -0.179369    0.016628    0.004757
N      -0.053144    1.232625    0.007230
O       0.988574    1.864825    0.002348
C      -1.281035    2.010581    0.017138
N      -1.388887    3.295757    0.021348
C      -2.756666    3.499807    0.030607
C      -3.385762    2.293544    0.031278
O      -2.433184    1.322029    0.022547
H      -3.183806    4.489486    0.036048
H      -4.410253    1.963145    0.036872
