11

N      -0.022362    1.334991    0.010147
C      -0.040151    0.070252    0.003356
O       1.164402   -0.664839   -0.007908
C       1.136821   -2.010421   -0.015058
N       0.106126   -2.761803   -0.012937
C      -1.118379   -2.097204   -0.001922
C      -1.229011   -0.755475    0.006054
H       0.933122    1.691960    0.006321
H       2.142833   -2.419807   -0.023392
H      -1.991432   -2.740906   -0.000144
H      -2.182595   -0.244661    0.014602
