16

N       0.004341    1.307560    0.031393
C      -0.025442   -0.036066    0.008160
C      -1.151389   -0.818450    0.004522
C      -2.467780   -0.309929    0.012844
C      -3.575002    0.169075    0.019011
C      -0.775218   -2.239198   -0.010656
O      -1.506121   -3.203104   -0.018246
C       0.766076   -2.305521   -0.016999
C       1.248412   -0.844737   -0.004720
H       0.868844    1.815264   -0.024390
H      -0.859752    1.824944    0.003577
H      -4.563389    0.556098    0.025797
H       1.104902   -2.871369    0.855028
H       1.098317   -2.854982   -0.901935
H       1.852649   -0.588924   -0.883685
H       1.859229   -0.605344    0.874065
