16

C      -0.080358    0.786179   -0.478792
N      -0.437856   -0.183151    0.606853
H      -1.220146    0.196831    1.143604
H      -0.736077   -1.077025    0.155277
C       0.674515   -0.535870    1.526690
C       0.923456    0.439879    2.543387
O       1.775144    0.432540    3.408932
C       1.307120   -1.796033    1.348043
O       2.262639   -2.248542    1.977482
C       0.740997   -2.766887    0.304909
O      -0.257283   -2.622049   -0.382103
H       0.703257    0.330898   -1.083507
H      -0.962725    0.993974   -1.089748
H       0.294686    1.700872   -0.021083
H       0.182806    1.294029    2.491172
H       1.345661   -3.692263    0.255796
