23

O      -0.260463    1.347061   -0.022935
C      -0.112928   -0.068723    0.020050
C       0.606230   -0.616722   -1.222298
C      -0.040339   -0.220504   -2.532679
C       0.391961    1.020633   -3.270437
C       0.718755   -0.342328   -3.829949
C       0.561513   -0.534202    1.304735
C       1.669412    0.268921    1.940683
C       0.315095    0.182678    2.602999
H       0.568534    1.720987   -0.337849
H      -1.144085   -0.449515    0.018895
H       1.653383   -0.279382   -1.206158
H       0.642634   -1.711312   -1.138490
H      -1.102488   -0.447640   -2.586977
H      -0.363491    1.619856   -3.765995
H       1.211338    1.601313   -2.857379
H       1.751142   -0.674547   -3.783942
H       0.185535   -0.680304   -4.711649
H       0.665678   -1.614925    1.364625
H       2.504214   -0.263534    2.382595
H       1.937504    1.221039    1.494536
H      -0.305322    1.070370    2.558834
H       0.216318   -0.404480    3.509196
