19

C       0.078971    1.443729   -0.461744
N       0.183005    0.025401   -0.160585
C       1.505494   -0.546829    0.039224
C       0.548448   -0.441969    1.186390
C       0.830764    0.524817    2.319393
C      -0.211519   -1.685504    1.561518
C      -0.049736   -2.397615    2.835953
O      -1.195376   -1.577112    2.595697
H       0.882908    2.066926   -0.040292
H       0.099927    1.567940   -1.549365
H      -0.879975    1.824272   -0.096360
H       1.698629   -1.499983   -0.449155
H       2.360678    0.129482    0.059037
H       1.313327    1.436524    1.964383
H      -0.096483    0.791758    2.833490
H       1.501610    0.071169    3.055896
H      -0.540813   -2.256750    0.693416
H      -0.241264   -3.469213    2.877157
H       0.640426   -2.025202    3.590488
