16

O      -0.025148    1.454507   -0.048815
C       0.009071    0.036121   -0.009309
C       0.548745   -0.568663    1.354146
N      -0.500557   -1.404332    1.974733
C      -1.498152   -1.322804    1.190833
O      -2.723376   -1.878065    1.291543
C      -3.483462   -1.435503    0.144670
C      -2.545501   -0.559247   -0.662815
C      -1.383931   -0.517130   -0.015518
H       0.883662    1.770209   -0.009900
H       0.591944   -0.355889   -0.856105
H       1.451900   -1.170087    1.199598
H       0.812624    0.255687    2.028260
H      -3.827808   -2.318667   -0.408744
H      -4.369208   -0.895180    0.502678
H      -2.842392   -0.078229   -1.585056
