21

C      -0.231633    1.597721   -0.033406
C      -0.007340    0.093453    0.024447
C       1.163827   -0.605509   -0.730805
C       2.145898   -0.074541    0.367690
C       3.474456   -0.797772    0.588688
C       3.301575   -2.290846    0.583663
C       2.079437   -2.784085    0.397641
C       0.929426   -1.844465    0.201608
C       0.870252   -0.577805    1.124331
H       0.680516    2.184797    0.099224
H      -0.667427    1.880362   -0.998308
H      -0.938234    1.907161    0.744942
H      -0.965246   -0.421910   -0.119413
H       1.337891   -0.637635   -1.809068
H       2.297046    1.006444    0.375507
H       4.193445   -0.493642   -0.186481
H       3.920532   -0.467847    1.538682
H       4.170277   -2.925871    0.730642
H       1.887326   -3.852897    0.383234
H      -0.027480   -2.353439    0.057778
H       0.702780   -0.577668    2.204119
