14

C      -0.071685    1.570039    0.023050
C       0.031314    0.041960   -0.022261
N       0.809935   -0.445408   -1.159964
C       1.749105   -1.148895   -0.663940
O       1.805165   -1.278128    0.714232
C       0.734191   -0.533775    1.206025
O       0.509096   -0.426319    2.368887
C       2.767051   -1.830938   -1.379375
C       3.632995   -2.412624   -1.974848
H       0.922284    2.024518    0.050946
H      -0.593389    1.932187   -0.865035
H      -0.621946    1.874431    0.916739
H      -0.979367   -0.383500   -0.073382
H       4.396435   -2.925602   -2.507658
