18

C       0.081012    1.494953   -0.156413
C      -0.054737   -0.013386    0.096170
C       0.695038   -0.456537    1.319473
C       2.216825   -0.803178    1.338913
C       2.659056   -0.660734    2.792218
N       1.337512   -1.301043    3.203723
C       1.223777   -1.820990    1.760792
C       0.392089   -0.230783    2.762837
O      -0.381613    0.410850    3.400968
H       1.126164    1.775101   -0.322902
H      -0.494888    1.795639   -1.036298
H      -0.287878    2.063161    0.702385
H      -1.113552   -0.271409    0.217209
H       0.303635   -0.575467   -0.774887
H       2.790114   -0.751514    0.420085
H       3.488736   -1.321702    3.053998
H       2.822765    0.336784    3.214171
H       0.931834   -2.819119    1.471816
