23

C      -0.572975    1.373267    0.115645
C      -0.041190   -0.038289    0.014980
C      -0.203586   -0.965006    1.217453
C       1.165589   -0.516024    0.770573
O       1.929679   -1.396736   -0.013116
C       1.084584   -1.862128   -1.062178
C       0.053627   -0.737589   -1.358526
C      -1.279786   -1.313057   -1.849622
C       0.637768    0.225627   -2.408550
H       0.003478    2.078042   -0.491620
H      -1.619878    1.431155   -0.206609
H      -0.534761    1.725486    1.151119
H      -0.601263   -0.515133    2.121419
H      -0.490507   -2.001531    1.079699
H       1.786160    0.115599    1.396063
H       1.717910   -2.095890   -1.922782
H       0.573252   -2.787852   -0.760761
H      -1.726131   -1.979081   -1.104715
H      -1.999592   -0.515041   -2.060813
H      -1.144874   -1.884061   -2.775442
H       0.790550   -0.298070   -3.358308
H      -0.029827    1.070047   -2.603630
H       1.604965    0.621640   -2.083052
