19

C      -0.155764    1.501901    0.091243
C       0.075373    0.009382    0.066245
C       1.381141   -0.647838   -0.228266
C       2.684116    0.147153   -0.105416
C       2.750814    0.532105    1.358052
C       1.735589    0.026380    2.060933
C       0.797635   -0.749174    1.203142
C       0.160132   -1.980155    1.703020
O       0.250714   -2.395503    2.834021
H       0.670475    2.036930    0.562840
H      -0.271088    1.882905   -0.929626
H      -1.070665    1.742610    0.642052
H      -0.776066   -0.551362   -0.316963
H       1.372654   -1.523137   -0.868582
H       3.546571   -0.464127   -0.399245
H       2.693103    1.025970   -0.764058
H       3.537713    1.162517    1.756579
H       1.573000    0.137343    3.125208
H      -0.448093   -2.520414    0.938486
