18

N       0.335524    1.347973   -0.335471
C       0.031830   -0.052689   -0.073166
C       0.457032   -1.028090   -1.196507
N      -0.078840   -0.675860   -2.500046
C       0.615058    0.078314   -3.394265
O       1.704834    0.572558   -3.188068
C       0.717165   -0.488890    1.243928
C       0.180624    0.204661    2.411199
N      -0.262429    0.725992    3.341989
H       1.234688    1.432465   -0.803571
H      -0.347395    1.743536   -0.971573
H      -1.052458   -0.133714    0.069233
H       1.548247   -1.018507   -1.288269
H       0.146282   -2.050511   -0.953796
H      -0.975405   -1.040683   -2.778932
H       0.071482    0.192798   -4.351944
H       0.603356   -1.568060    1.400804
H       1.792726   -0.287024    1.174858
