23

C       0.613743    1.045794   -0.516643
C       0.158438   -0.362104   -0.128311
C      -1.347666   -0.463863    0.119898
O      -2.053707   -0.176054   -1.089737
C      -2.946133    0.914138   -1.023471
C      -1.753475   -1.867926    0.586540
O      -1.038237   -2.166065    1.772390
C      -3.253723   -2.005456    0.855111
O      -3.528883   -3.269337    1.462118
H       1.690957    1.071267   -0.707101
H       0.105168    1.383538   -1.424421
H       0.402388    1.768186    0.280238
H       0.417373   -1.069387   -0.926564
H       0.672930   -0.700003    0.776163
H      -1.634990    0.252677    0.904509
H      -3.390641    1.025145   -2.016493
H      -3.755674    0.748830   -0.296422
H      -2.434801    1.851562   -0.761550
H      -1.483067   -2.577927   -0.218334
H      -1.538573   -2.873784    2.200914
H      -3.568446   -1.256666    1.589963
H      -3.830514   -1.862133   -0.065638
H      -3.433476   -3.947733    0.784709
