19

C      -0.045556    1.411398    0.002748
N      -0.013542   -0.026888   -0.110453
C      -1.215228   -0.835279   -0.072418
C      -0.703196   -2.245983   -0.376468
C      -1.580717   -3.429555   -0.261997
N      -1.137585   -2.955837   -1.588956
C       0.787262   -2.228157   -0.086083
C       1.158519   -0.745116   -0.087398
O       2.272820   -0.267508   -0.054176
H       0.986693    1.765031   -0.012502
H      -0.596770    1.861376   -0.831933
H      -0.521922    1.728862    0.939947
H      -1.703726   -0.775419    0.913479
H      -1.947189   -0.494723   -0.818210
H      -1.167371   -4.386855    0.044564
H      -2.617228   -3.273413    0.029983
H      -1.894835   -2.451616   -2.045242
H       1.029483   -2.642112    0.899573
H       1.361968   -2.777216   -0.833613
