15

C       0.072041    1.567185   -0.013551
C       0.038517    0.071794   -0.008796
C       0.010522   -0.796133   -1.083499
O      -0.017802   -0.601656   -2.421424
N       0.032930   -2.056044   -0.607879
N       0.060094   -2.091001    0.761936
C       0.071672   -0.811251    1.107949
N       0.187944   -0.426634    2.447182
H       0.798774    1.944196    0.714710
H       0.371864    1.964290   -0.991573
H      -0.897488    2.022908    0.228881
H      -0.048079    0.345531   -2.590932
H       0.022221   -2.909372   -1.136667
H       0.074165   -1.225020    3.060328
H      -0.464538    0.302178    2.707769
