18

C       0.008860    1.536057    0.097590
C       1.339776    0.818840    0.093244
C       0.065606    0.033602   -0.002870
C      -0.459815   -0.862854    1.164451
N      -1.713108   -1.504046    0.662613
C      -1.573550   -1.426014   -0.587799
O      -2.419301   -1.406297   -1.663582
C      -1.500215   -0.422521   -2.292905
C      -0.410209   -0.743559   -1.223171
H      -0.337198    1.970183    1.030024
H      -0.265642    2.102943   -0.785827
H       1.964766    0.902533   -0.789712
H       1.893999    0.771380    1.025411
H       0.279474   -1.621597    1.455875
H      -0.695675   -0.274870    2.056898
H      -1.276405   -0.706802   -3.321816
H      -1.941717    0.575206   -2.237556
H       0.350133   -1.416531   -1.630090
