17

C      -0.098571    1.388449    0.064540
C       0.024969   -0.096748    0.017371
O      -1.144111   -0.879656   -0.267762
C      -0.395906   -2.048262    0.192686
C      -1.210850   -3.174983    0.732064
C       0.648912   -1.102469    0.903728
C       1.240125   -0.857418   -0.534482
C       0.691940   -2.197354   -0.909573
O       1.068212   -3.115573   -1.580977
H       0.851637    1.842044    0.359723
H      -0.377422    1.779853   -0.918634
H      -0.866019    1.682943    0.786219
H      -1.902736   -3.526340   -0.039591
H      -0.562192   -4.009816    1.012258
H      -1.791924   -2.862328    1.603668
H       1.165492   -1.110257    1.852421
H       2.178010   -0.387785   -0.796346
