17

C      -0.014183    1.414447    0.007949
O      -0.034038   -0.018026    0.003151
C      -1.237586   -0.564599    0.010820
N      -2.353545    0.050837    0.022089
C      -3.413465   -0.959054    0.026569
C      -2.711210   -2.351087    0.017193
N      -1.290480   -1.971980    0.006082
C      -0.261624   -2.888475   -0.007157
O       0.920046   -2.651254   -0.017696
H       1.040440    1.688654    0.000377
H      -0.523785    1.807683   -0.875523
H      -0.509421    1.801533    0.902240
H      -4.047088   -0.835002    0.911341
H      -4.059687   -0.829462   -0.848271
H      -2.947605   -2.946355    0.904408
H      -2.962667   -2.942194   -0.868636
H      -0.670625   -3.919671   -0.008414
