21

C       0.173949    1.528152    0.144041
C      -0.100940    0.020035   -0.039390
C      -1.601762   -0.305211   -0.150929
C      -2.377263    0.022342    1.100907
C      -3.405507   -0.875695    1.640343
O      -2.112796   -0.802523    2.244070
C       0.642014   -0.451217   -1.293131
C       2.080615   -0.896921   -1.103536
O       0.108959   -0.458047   -2.379659
H       1.246979    1.738297    0.190774
H      -0.245067    2.098734   -0.691159
H      -0.269948    1.896729    1.072345
H       0.309358   -0.510749    0.828396
H      -2.026059    0.236015   -1.003672
H      -1.719233   -1.372188   -0.368630
H      -2.470855    1.081558    1.345462
H      -4.223841   -0.471916    2.235198
H      -3.626848   -1.807300    1.120765
H       2.641728   -0.186212   -0.488261
H       2.091054   -1.853879   -0.567391
H       2.566392   -1.023341   -2.071851
