15

C      -0.248152    1.560945    0.182554
C      -0.200136    0.103495   -0.268519
C       0.750078   -0.116497   -1.438695
O       1.398648    0.766821   -1.958027
N       0.815531   -1.432241   -1.871292
C       1.611667   -1.864404   -2.919134
N       1.615820   -3.089525   -3.255603
H       0.740965    1.904806    0.493894
H      -0.577112    2.209908   -0.632390
H      -0.938410    1.678577    1.022208
H       0.112756   -0.552526    0.554719
H      -1.196787   -0.248691   -0.566273
H       0.260712   -2.142861   -1.414926
H       2.181511   -1.046464   -3.363895
H       2.250678   -3.237468   -4.037885
