19

C       0.067435    1.559515   -0.158191
C       0.087081    0.023288   -0.075044
C       0.698202   -0.491450    1.192737
N       1.975643   -0.751101    1.285372
O       2.184149   -1.186963    2.562648
N       1.017723   -1.208289    3.272480
C       0.087887   -0.782861    2.458706
C      -1.342168   -0.658507    2.889470
C      -1.671269    0.711877    3.506764
H       1.082989    1.960323   -0.098690
H      -0.375914    1.884012   -1.103964
H      -0.516090    1.999799    0.655979
H      -0.932934   -0.366539   -0.164498
H       0.657626   -0.379740   -0.916687
H      -1.992647   -0.843940    2.027663
H      -1.548766   -1.445770    3.620206
H      -1.049199    0.895474    4.386996
H      -1.497181    1.525844    2.796562
H      -2.720741    0.749878    3.812543
