15

N      -0.005585    1.387125    0.134071
C       0.016993    0.010573    0.042885
C      -1.171204   -0.740525    0.028222
N      -1.222809   -2.065531   -0.004965
C      -0.064329   -2.737371   -0.025792
C       1.169919   -2.106905   -0.020721
C       1.233472   -0.708017    0.010027
C       2.472476   -0.010868    0.003591
C       3.502530    0.615535   -0.010464
H       0.842498    1.859864   -0.142120
H      -0.848566    1.842453   -0.179516
H      -2.125343   -0.214717    0.046701
H      -0.132042   -3.820941   -0.049782
H       2.087657   -2.682760   -0.045613
H       4.422977    1.145425   -0.012722
