18

C      -0.012433    1.461905    0.040925
O       0.013483    0.031032    0.032765
C       0.620513   -0.525731    1.068085
N       1.167397    0.092663    2.042320
C       1.710525   -0.919531    2.949455
C       1.379503   -2.307321    2.322932
N       0.667433   -1.926026    1.097812
C       0.178417   -2.864772    0.212225
N      -0.446145   -2.603932   -0.864807
H       1.003795    1.864788    0.039807
H      -0.542082    1.746692   -0.868101
H      -0.535661    1.831869    0.926569
H       2.790747   -0.780005    3.068122
H       1.266021   -0.812244    3.945105
H       2.278397   -2.886724    2.086680
H       0.741537   -2.918842    2.969917
H       0.407658   -3.875765    0.573633
H      -0.694278   -3.475595   -1.328855
