18

C       0.051658    1.313487    0.006295
O      -0.003747   -0.095899    0.016986
C      -1.321685   -0.595961   -0.027291
C      -1.247690   -2.088602   -0.010926
N      -2.257275   -2.937165   -0.040023
C      -1.637106   -4.157944   -0.006282
C      -2.382458   -5.449739   -0.021777
N      -0.313346   -4.099530    0.041518
N      -0.085088   -2.761898    0.037641
H       1.105509    1.597154    0.043035
H      -0.399687    1.728886   -0.907338
H      -0.466205    1.745011    0.876120
H      -1.912449   -0.242614    0.833410
H      -1.846867   -0.258738   -0.935664
H      -2.994695   -5.533255   -0.925257
H      -1.683289   -6.286892    0.011711
H      -3.059534   -5.516933    0.835619
H       0.846600   -2.383098    0.068290
