25

C       0.390421    1.278797   -0.340508
C      -0.089457   -0.132598    0.030426
C       0.527004   -0.576596    1.364076
C      -1.623058   -0.239296    0.091957
C      -2.330748   -0.006958   -1.237126
O      -3.714000   -0.264465   -1.048667
C      -4.476156   -0.046179   -2.191557
C      -4.592880   -1.140776   -3.223661
C      -5.750907   -0.815830   -2.298429
H       1.484325    1.328376   -0.352646
H       0.036941    1.591023   -1.327684
H       0.033696    2.015277    0.389854
H       0.263791   -0.824597   -0.748341
H       0.204584    0.079897    2.181217
H       0.228362   -1.598134    1.621584
H       1.620896   -0.544820    1.325525
H      -1.903662   -1.239099    0.444596
H      -2.015814    0.470857    0.831356
H      -2.190256    1.026843   -1.590151
H      -1.923297   -0.673272   -2.015178
H      -4.463645    0.985159   -2.548994
H      -4.665481   -0.869751   -4.271284
H      -4.051381   -2.059089   -3.025696
H      -5.954989   -1.519178   -1.499318
H      -6.625170   -0.319136   -2.703662
