17

O       0.011326    0.021992    0.025717
C      -0.007826    1.223162    0.027782
C      -1.256211    2.144503    0.029840
C      -0.582116    3.540874    0.034521
N       0.640432    3.336112   -0.783962
C       1.189436    2.204135   -0.010904
C       1.203557    2.787418    1.408155
N       1.381741    4.254836    1.466607
C       0.022398    3.688154    1.435326
H      -1.842189    1.980502   -0.880974
H      -1.901353    1.918543    0.884680
H      -1.192431    4.368389   -0.328522
H       0.388669    3.033108   -1.722309
H       2.117852    1.790495   -0.401443
H       1.491782    2.159769    2.242599
H       1.600983    4.498045    2.431086
H      -0.633702    3.769648    2.294530
