18

N      -0.007551    1.266249   -0.164921
C       0.035847   -0.082769   -0.041128
O       1.074970   -0.713501    0.063000
C      -1.312130   -0.821399    0.015338
O      -1.069452   -2.194150   -0.143748
C      -2.022505   -0.565735    1.349898
C      -2.820038    0.744597    1.539631
O      -4.049041    0.027136    1.735267
C      -3.399361   -1.245520    1.510126
H       0.861835    1.771201   -0.230034
H      -0.863126    1.751005   -0.373059
H      -1.957182   -0.470367   -0.806097
H      -0.105626   -2.285693   -0.044923
H      -1.332523   -0.785102    2.168220
H      -2.549754    1.355810    2.408688
H      -2.873059    1.400521    0.656020
H      -3.773125   -1.748722    0.610426
H      -3.508566   -1.918434    2.367322
