18

C       0.196434    1.383010    0.132010
C      -0.245699   -0.087611   -0.020017
C      -1.701766   -0.218593   -0.034094
C      -2.899229   -0.317642   -0.072396
C       0.342309   -0.683001   -1.293689
O       1.744907   -0.951870   -1.282533
C       0.840860   -2.059922   -1.427107
C       0.828805   -3.102503   -0.339170
H       1.288180    1.437509    0.143422
H      -0.175765    1.986360   -0.701312
H      -0.191018    1.809366    1.060472
H       0.150056   -0.648385    0.833872
H      -3.956845   -0.410098   -0.093105
H      -0.010530   -0.187271   -2.200977
H       0.832539   -2.473659   -2.437898
H       0.849108   -2.658489    0.657868
H      -0.066193   -3.727742   -0.424873
H       1.703947   -3.753562   -0.434759
