21

C      -0.020149    1.503085   -0.041030
C      -0.007201    0.046976   -0.016063
C       0.002732   -1.158335    0.000081
C       0.017059   -2.616155    0.025910
C       0.992153   -3.175325   -1.018871
C       0.227766   -3.287284    1.444990
C      -1.127453   -3.984278    1.304258
C      -2.218015   -2.963319    1.132699
C      -1.364116   -3.316329   -0.048381
H       0.737063    1.897725   -0.727909
H      -0.993188    1.887576   -0.367068
H       0.184016    1.922120    0.950786
H       2.012236   -2.832918   -0.820303
H       0.981723   -4.270153   -1.001118
H       0.712782   -2.845404   -2.024471
H       1.081692   -3.968609    1.436423
H       0.328832   -2.599715    2.289414
H      -1.340462   -5.003261    1.603239
H      -3.228119   -3.359701    1.105427
H      -2.132956   -1.981490    1.592024
H      -1.777166   -3.727606   -0.962481
