16

O      -0.109686    1.303422   -0.186649
N      -0.009842   -0.091363   -0.098215
C      -1.155378   -0.635948    0.061964
C      -2.488355   -0.048235    0.211951
C      -3.394740   -1.001330    0.481536
C      -2.791921   -2.378104    0.515234
C      -2.844298   -3.165070   -0.819683
O      -1.502790   -2.761988   -1.154794
C      -1.305039   -2.137444    0.141606
H       0.808994    1.566508   -0.306741
H      -2.677102    1.012282    0.124818
H      -4.453063   -0.824669    0.639716
H      -3.028506   -2.947212    1.416395
H      -2.923498   -4.253198   -0.698417
H      -3.578153   -2.826356   -1.559717
H      -0.512795   -2.631009    0.710200
