19

C       0.131045    1.619220   -0.057619
C       1.365501    0.717904   -0.054428
C       2.025454    0.770011    1.281033
C       1.673855   -0.133467    2.204784
C       0.903822    0.227460    3.465064
C      -0.230486   -0.627209    2.812197
C      -0.386261   -0.714541    1.253134
C      -0.033935    0.127438    0.036911
C       0.777066   -1.342578    1.938497
H      -0.048247    2.212195    0.833756
H      -0.148071    2.107575   -0.986183
H       1.918414    0.624838   -0.983914
H       2.401112    1.738839    1.610185
H       1.213922   -0.291761    4.379675
H       0.746484    1.290401    3.674111
H      -1.022052   -1.085432    3.399316
H      -1.226890   -1.380463    1.057735
H      -0.406794   -0.342860   -0.869557
H       1.078152   -2.382427    1.915448
