15

O      -0.086458    1.473633   -0.510337
C       0.068294    0.229297    0.152176
C      -1.265965   -0.475418    0.261950
N      -1.766436   -1.111486   -0.970664
C      -1.489786   -1.944083    0.198774
C      -0.405897   -2.986802    0.066719
F       0.558454   -2.649972   -0.793530
F       0.168640   -3.216502    1.259804
F      -0.931174   -4.149762   -0.351486
H      -0.376680    1.272203   -1.407146
H       0.799854   -0.409827   -0.351742
H       0.447296    0.458746    1.153381
H      -1.993931    0.069616    0.861416
H      -2.767245   -0.979037   -1.082374
H      -2.323830   -2.338688    0.774825
