17

C      -0.007572    1.513194   -0.032204
C      -0.033517    0.009140    0.057104
C      -1.289924   -0.741078   -0.394940
C      -1.204764   -2.138635    0.253668
C      -0.227067   -1.975711    1.432664
O      -0.185490   -2.673998    2.414604
C       0.608202   -0.758788    1.178420
N       1.233216   -0.676944   -0.165940
H       0.955010    1.901313    0.308465
H      -0.154395    1.838581   -1.068533
H      -0.803534    1.955701    0.575741
H      -2.175887   -0.208194   -0.033279
H      -1.361760   -0.773903   -1.487753
H      -2.161649   -2.506816    0.628051
H      -0.827473   -2.905102   -0.433177
H       1.167550   -0.315330    1.994479
H       1.116594   -1.548721   -0.679003
