18

N       0.243543   -1.072500    0.833891
C       0.144489    0.024997    0.481355
C       0.028461    1.403680    0.038237
C      -0.516553    2.420792    1.099447
C       0.866990    3.136252    1.114729
C       1.780778    2.754071    2.247457
C       2.740029    1.908904    1.870090
C       2.679403    1.564478    0.398722
C       1.368976    2.231867   -0.060478
H      -0.541059    1.410293   -0.894410
H      -1.330555    3.029547    0.700421
H      -0.834015    1.980583    2.045974
H       0.824454    4.216529    0.945522
H       1.642335    3.132822    3.254607
H       3.501715    1.500863    2.525391
H       3.547794    1.963783   -0.141561
H       2.678456    0.481697    0.225958
H       1.453307    2.716083   -1.033503
