17

C       1.012596    0.659661   -0.564287
C       0.256644   -0.202056    0.420447
O       0.789483   -0.827585    1.300924
C      -1.291496   -0.232081    0.215156
C      -1.596411   -1.205881   -0.822880
C      -1.823434   -2.013278   -1.684817
C      -2.014092   -0.478990    1.568831
C      -2.059776   -1.891704    2.089411
O      -2.475879    0.469408    2.152453
H       2.085706    0.504988   -0.448670
H       0.700584    0.431318   -1.588108
H       0.773225    1.713739   -0.380128
H      -1.607098    0.765365   -0.110426
H      -2.039734   -2.725484   -2.442690
H      -2.540743   -2.550601    1.360449
H      -1.032123   -2.245755    2.220051
H      -2.596169   -1.917068    3.038192
