19

O       0.085402    1.496591    0.153172
C       0.059118    0.072309    0.086362
C      -1.415274   -0.370551    0.175025
O      -2.069812   -0.555778   -1.062132
C      -2.016417    0.528732   -1.985046
C      -0.918791    0.290053   -3.024253
C       0.520617    0.354792   -2.465248
C       0.696659   -0.481495   -1.205760
O       1.292001   -1.532493   -1.184776
H       1.000544    1.779807    0.249822
H       0.605416   -0.369127    0.929965
H      -1.464752   -1.343522    0.670275
H      -1.936037    0.371557    0.798694
H      -2.990485    0.558357   -2.486207
H      -1.871941    1.482603   -1.463052
H      -1.090112   -0.697484   -3.466065
H      -1.016784    1.027535   -3.829330
H       1.231216   -0.012641   -3.209197
H       0.759263    1.396252   -2.227976
