16

N      -0.065911    1.396483   -0.154381
C       0.046922    0.010309   -0.043017
N      -1.038864   -0.765192   -0.053485
N      -0.559079   -2.047269   -0.021820
C       0.784456   -2.065879    0.030253
C       1.225191   -0.772286    0.015341
C       2.719240   -0.771353    0.032205
O       3.070976   -2.171468    0.105162
C       1.924631   -3.028950    0.061144
H       0.569343    1.899539    0.450775
H      -1.018443    1.700830    0.004089
H      -1.215671   -2.806888   -0.024723
H       3.169046   -0.336053   -0.872101
H       3.160665   -0.260305    0.899922
H       1.925530   -3.684184    0.944535
H       1.971162   -3.672640   -0.830651
