20

C       0.100504    1.425056   -0.375986
C       0.150711   -0.032967   -0.039915
N      -0.885968   -0.680350    0.807268
C       0.547095   -0.761853    1.197888
C       1.129940   -1.927203    0.397087
C       0.726556   -1.165445   -0.921255
C      -0.213932   -1.839918   -1.878195
C      -0.195823   -1.559104   -3.320631
O       0.375141   -2.761466   -2.807071
H       1.061909    1.772656   -0.769624
H      -0.664598    1.633832   -1.133198
H      -0.135033    2.024662    0.510475
H      -1.306476    0.059829    1.369795
H       0.875338   -0.376051    2.155902
H       2.211577   -2.035865    0.495862
H       0.646995   -2.893088    0.564324
H       1.619181   -0.831933   -1.458646
H      -1.146696   -2.186593   -1.436275
H      -1.104109   -1.683951   -3.909231
H       0.516390   -0.837125   -3.720569
