17

C      -0.280034    1.426983   -0.095598
C       0.136396   -0.005795   -0.064243
O      -0.757730   -0.960245    0.538351
C       0.580657   -0.903884    1.020075
C       1.440101   -1.768288    0.057932
C       1.006522   -3.202585   -0.016952
O       0.086452   -3.596797   -0.697373
C       0.977625   -0.785436   -1.101413
O       0.356034   -1.300888   -2.230485
H       0.578170    2.076481   -0.295070
H      -1.016441    1.589177   -0.889990
H      -0.731840    1.719580    0.855811
H       0.736989   -0.727613    2.078025
H       2.508312   -1.699284    0.281951
H       1.568375   -3.912387    0.628904
H       1.828235   -0.180719   -1.434593
H      -0.199130   -2.037121   -1.929828
