20

C      -0.027230    1.553348   -0.010723
C      -0.014898    0.019152    0.017391
C       0.638207   -0.484267    1.307392
O      -1.345499   -0.491052    0.035687
C       0.739392   -0.541396   -1.238626
C       0.869265   -2.088016   -1.257543
O       1.467909   -2.561866   -2.443390
C       0.031848   -0.132278   -2.455071
N      -0.569312    0.147835   -3.403172
H       0.986870    1.961182    0.048353
H      -0.487863    1.930715   -0.929598
H      -0.601359    1.927499    0.841048
H       0.160424   -0.004557    2.165299
H       0.512428   -1.563261    1.417996
H       1.705769   -0.246810    1.328501
H      -1.835913   -0.086179   -0.689891
H       1.747479   -0.112385   -1.278179
H       1.530097   -2.395025   -0.444395
H      -0.121511   -2.524792   -1.080196
H       0.855135   -2.413215   -3.172458
