13

O       0.040500    1.326555    0.068978
C      -0.038050   -0.023509    0.007052
C      -1.216378   -0.686609    0.012468
C      -1.231261   -2.133059    0.001358
N      -2.308070   -2.835718    0.009848
C       0.136110   -2.688727   -0.035481
F       0.223438   -4.012732   -0.047924
N       1.244598   -2.053820   -0.042129
N       1.158548   -0.695614   -0.060438
H       0.787505    1.640123   -0.454956
H      -2.147975   -0.138794    0.006199
H      -2.074440   -3.828914   -0.016761
H       2.013912   -0.236722    0.211148
