21

C      -0.000207    1.501222    0.175368
C       1.384299    2.148664   -0.050854
C       2.195537    1.402998   -1.133770
C       2.516656   -0.010521   -0.597472
C       1.229924   -0.776343   -0.373271
C      -0.018944   -0.011986   -0.024600
C       0.157868   -0.585040   -1.437748
C       0.471306    0.343716   -2.548308
C       1.414312    1.283370   -2.425351
H      -0.351335    1.736703    1.185528
H      -0.723963    1.953224   -0.512868
H       1.254799    3.202162   -0.321346
H       1.966051    2.132084    0.880206
H       3.131644    1.943091   -1.310298
H       3.149908   -0.550345   -1.312003
H       3.080314    0.075287    0.339536
H       1.333867   -1.777251    0.034821
H      -0.747637   -0.540433    0.583150
H      -0.460428   -1.441191   -1.685297
H      -0.099998    0.244789   -3.467099
H       1.625682    1.973623   -3.236298
