20

O      -0.064203    1.171309   -0.825816
C      -0.028795    0.155629    0.163239
C      -1.331162   -0.605985    0.193953
O      -1.544789   -1.517588   -0.898221
C      -1.475084   -2.050351    0.432243
C      -0.343973   -3.000547    0.746444
N      -0.727463   -4.356747    0.369561
C      -0.470932   -4.725698   -1.021347
C       0.366422   -5.277797    0.078770
H      -0.258735    0.736082   -1.663663
H       0.815645   -0.528172    0.004131
H       0.126151    0.665710    1.120456
H      -2.196945    0.024179    0.406565
H      -2.438113   -2.394169    0.812635
H       0.578445   -2.670700    0.242044
H      -0.155692   -2.990665    1.827924
H      -1.234424   -5.336634   -1.493372
H      -0.021763   -3.975769   -1.668597
H       1.385641   -4.903911    0.165215
H       0.226659   -6.298392    0.423008
