9

N      -0.001611   -1.154055   -0.002915
C       0.014505    0.001879    0.002279
C      -0.026605    1.434727    0.010426
C      -1.232241    2.136129    0.030531
N      -1.221420    3.460248    0.037667
N      -0.048807    4.086632    0.025438
N       1.090373    3.422472    0.006508
N       1.131192    2.098460   -0.001306
H      -2.199010    1.643030    0.040923
