20

C      -0.208781    1.553374   -0.005931
C       0.029156    0.051069    0.009994
C       1.125694   -0.539385   -0.933911
C       1.778151   -1.277061    0.275871
C       0.750495   -0.597248    1.237157
N       1.875908    0.148153    1.802831
C       1.976753    1.179262    2.805581
C       2.839605   -0.424084    0.999147
O       4.028510   -0.246817    0.923562
H       0.724227    2.103779    0.151942
H      -0.616655    1.870295   -0.971896
H      -0.920284    1.857136    0.770118
H      -0.918204   -0.475479   -0.149423
H       0.735931   -1.206778   -1.704683
H       1.778779    0.194407   -1.413266
H       1.939172   -2.351311    0.219072
H       0.145880   -1.134079    1.972020
H       1.606443    0.828331    3.776378
H       3.035024    1.433992    2.904928
H       1.421136    2.082219    2.528526
