18

C       0.002763    1.550600    0.090189
C       1.484950    1.831487   -0.030084
C       2.453843    0.825281    0.500617
C       1.928017   -0.523127    1.036738
C       1.962171   -1.382898   -0.244421
C       1.158338   -0.317981   -1.006704
C       0.012222    0.026792    0.010643
O       0.524063   -0.440214    1.276443
N       2.098504    0.853899   -0.956591
H      -0.449629    1.890799    1.024504
H      -0.529033    2.010987   -0.751135
H       1.819890    2.858463   -0.150865
H       3.464074    1.132567    0.755681
H       2.423470   -0.894952    1.932664
H       2.956161   -1.523723   -0.673532
H       1.454726   -2.340965   -0.112612
H       0.841134   -0.534924   -2.025647
H      -0.953912   -0.443241   -0.182195
