18

C      -0.031990    1.566242    0.127934
C       0.028955    0.073149    0.091301
C       1.215803   -0.746967   -0.363494
C       0.627885   -0.974122    1.006475
O       1.333106   -0.842069    2.183700
C      -0.701833   -1.748761    0.892509
N      -1.180492   -0.756365   -0.151249
C      -0.677153   -3.144487    0.487409
C      -0.625233   -4.303286    0.170218
H       0.935758    1.984793    0.417766
H      -0.294835    1.971049   -0.856202
H      -0.779759    1.916638    0.849297
H       1.103143   -1.480305   -1.157466
H       2.162175   -0.214623   -0.339599
H       2.056594   -1.479512    2.179723
H      -1.256336   -1.637769    1.831016
H      -2.007450   -0.282478    0.204339
H      -0.590474   -5.324609   -0.118376
