17

C      -0.068991    1.488294   -0.318671
C       0.007525   -0.001781   -0.092914
C       1.279797   -0.744737   -0.299605
N       0.756387   -0.566999    1.054470
C       1.445377    0.279571    1.926410
C       0.993777    0.798398    3.122813
N       2.060826    1.490477    3.590717
N       3.112494    1.409104    2.763682
N       2.739108    0.677872    1.747938
H       0.901772    1.966999   -0.168285
H      -0.397256    1.693760   -1.342822
H      -0.789507    1.955497    0.362190
H      -0.923265   -0.537415   -0.269980
H       1.270052   -1.768950   -0.661781
H       2.159218   -0.166747   -0.567949
H       0.058030    0.723176    3.648152
H       2.148033    2.014116    4.446979
