17

O      -0.182999    1.386791    0.036645
C      -0.084062   -0.004398    0.045145
C      -0.475216   -0.780042   -1.184461
C      -1.344728   -0.835563    0.066842
C      -1.059220   -1.978633    0.996685
C       0.189648   -1.890598    1.492370
C       0.907179   -0.651275    1.017955
C      -2.006039   -2.995926    1.266863
C      -2.844070   -3.836366    1.476147
H       0.503655    1.731821   -0.544368
H      -0.865164   -0.190039   -2.007427
H       0.082104   -1.667677   -1.467258
H      -2.329277   -0.385481    0.035942
H       0.640172   -2.618810    2.155475
H       1.874481   -0.880596    0.552161
H       1.111625    0.038423    1.848471
H      -3.572036   -4.584805    1.668367
