21

C       0.122011    1.558124    0.147442
C       0.023706    0.036312   -0.025560
C       0.733404   -0.452585   -1.288561
N       0.557035   -0.688749    1.128270
C      -0.129322   -0.743089    2.299586
N      -1.342875   -0.397317    2.503175
C      -1.637584   -0.755728    3.892360
C      -0.275758   -1.218489    4.478668
O       0.595806   -1.270631    3.331084
H       1.168543    1.877990    0.216111
H      -0.333386    2.073828   -0.704320
H      -0.400858    1.866431    1.055725
H      -1.035234   -0.234911   -0.076536
H       1.805057   -0.219317   -1.252271
H       0.623665   -1.533992   -1.406825
H       0.320915    0.038903   -2.174067
H       1.560512   -0.735473    1.223001
H      -2.047680    0.100585    4.439133
H      -2.391286   -1.552921    3.934067
H       0.144743   -0.508949    5.199272
H      -0.302172   -2.211282    4.934899
