25

C      -0.146222    1.649887   -0.015176
C      -0.054638    0.121447    0.012519
C       0.725208   -0.452797   -1.175900
C       0.811899   -1.987506   -1.199345
C       1.469450   -2.552076   -2.486883
C       2.257244   -3.818505   -2.060537
C       3.560157   -4.037937   -2.837038
C       2.439978   -3.588694   -0.575011
C       1.666792   -2.608582   -0.112436
H       0.849430    2.106579    0.013271
H      -0.642313    1.999616   -0.927520
H      -0.712282    2.033209    0.839687
H       0.414243   -0.195868    0.952413
H      -1.066277   -0.306101    0.019877
H       0.250605   -0.114830   -2.107769
H       1.742808   -0.037842   -1.184326
H      -0.215608   -2.376315   -1.106596
H       0.744434   -2.747924   -3.282139
H       2.179830   -1.809617   -2.872873
H       1.628342   -4.711569   -2.203880
H       4.234949   -3.183284   -2.715409
H       4.086397   -4.933129   -2.488044
H       3.365385   -4.163587   -3.907622
H       3.109398   -4.196861    0.025697
H       1.607865   -2.300394    0.926062
