22

C      -0.463890    1.493584   -0.096719
C       0.036116    0.060364    0.020584
C       1.343511   -0.356662   -0.709250
C       1.694676   -1.258025    0.503960
C       0.656096   -0.468793    1.359409
C       1.275828    0.602974    2.256747
N       1.955272    0.026539    3.408082
C       1.590988    0.277076    4.693658
O       0.698582    1.021390    5.041845
H       0.310675    2.220167    0.169404
H      -0.775102    1.708238   -1.125115
H      -1.327482    1.672951    0.553194
H      -0.768554   -0.623692   -0.271584
H       1.247498   -0.835832   -1.686596
H       2.036240    0.485312   -0.808923
H       1.393389   -2.297182    0.348417
H       2.736015   -1.254106    0.843234
H      -0.012885   -1.080740    1.971806
H       1.982173    1.223136    1.689276
H       0.508614    1.265118    2.663842
H       2.701510   -0.631615    3.249390
H       2.220003   -0.286570    5.411910
