20

C      -0.094457    1.551885   -0.030035
C      -0.072008    0.031206   -0.021381
C       1.158786   -0.605854   -0.711887
O       1.945096   -0.298325    0.492634
C       0.674002   -0.619171    1.185880
C       0.593627   -0.148282    2.610015
C       0.599139   -2.143109    0.889711
N      -0.402391   -2.539820   -0.130055
C       0.964543   -2.130196   -0.540447
H       0.886156    1.965136    0.217516
H      -0.385731    1.923338   -1.018591
H      -0.825568    1.936390    0.689618
H      -1.043866   -0.391741   -0.272203
H       1.600682   -0.226855   -1.633464
H       0.725528    0.934420    2.677650
H      -0.379114   -0.408926    3.039807
H       1.372427   -0.625536    3.214632
H       0.970051   -2.863738    1.609593
H      -0.449346   -3.557928   -0.152614
H       1.637635   -2.841611   -1.003066
