12

O       0.086821   -0.062388   -0.002139
C       0.005759    1.146103    0.008555
C       1.183588    2.012514    0.003302
C       1.351259    3.386714    0.012689
C       2.750242    3.568892   -0.000376
N       3.402520    2.391148   -0.016773
N       2.439406    1.483699   -0.014080
C       3.461873    4.801120    0.002214
N       4.001391    5.824156    0.004895
H      -0.967450    1.674272    0.022941
H       0.586079    4.145049    0.026807
H       2.659766    0.498341   -0.024370
