14

O       0.016962   -0.115696   -0.389732
C      -0.036600    1.066712   -0.124305
C       1.147940    1.845606    0.177441
C       2.122629    2.507110    0.424770
C      -1.328884    1.823697   -0.083476
C      -2.507334    1.237525   -0.815492
C      -2.514979    1.213079    0.688146
C      -2.381057   -0.020186    1.413986
N      -2.319975   -0.992632    2.036327
H       2.996812    3.071699    0.643664
H      -1.245013    2.900897   -0.005248
H      -3.193004    1.914660   -1.309703
H      -2.316917    0.293986   -1.312957
H      -3.143601    1.941091    1.190048
