15

N      -0.073319    1.471334    0.030296
C       0.030707    0.210382    0.037118
O      -1.089387   -0.585678    0.172086
C      -2.337859   -0.036232   -0.000172
O      -3.314989   -0.684973    0.206459
C       1.232800   -0.656910   -0.059039
C       2.407779   -0.221853   -0.916477
C       2.536950   -0.204082    0.571868
H       0.832820    1.921484   -0.082300
H      -2.297644    1.003784   -0.344679
H       1.007503   -1.715026   -0.026540
H       2.919987   -0.994301   -1.477986
H       2.313423    0.724492   -1.438360
H       2.529266    0.754770    1.079190
H       3.140722   -0.963286    1.054883
