13

N       0.097960   -1.199116    0.392167
C       0.067561   -0.072723    0.139403
C       0.052465    1.361815   -0.210358
O      -0.768279    2.082555    0.709104
C      -0.002621    3.095572    1.361825
C       1.391524    2.971163    0.790545
C       1.421511    1.993812   -0.102093
C      -0.596324    4.423526    1.107716
N      -1.039195    5.474081    0.923918
H      -0.367557    1.454472   -1.222248
H      -0.022360    2.922881    2.447500
H       2.203121    3.618278    1.092263
H       2.267237    1.651312   -0.681690
