19

C       0.046519    1.528249    0.103183
C      -0.011688    0.034465   -0.024228
C      -1.132151   -0.683964    0.054037
C      -1.090277   -2.169319    0.003734
O      -1.678692   -2.831328    1.096293
C      -1.059650   -2.912077   -1.322871
C       0.190338   -2.765149   -0.482496
O       1.179074   -1.901818   -0.962442
C       1.305684   -0.685100   -0.241588
H       0.728053    1.828166    0.910027
H       0.428286    1.993021   -0.815015
H      -0.938247    1.950759    0.319081
H      -2.099302   -0.206200    0.199448
H      -2.633623   -2.818495    0.966780
H      -1.531090   -3.888848   -1.351588
H      -1.102313   -2.329774   -2.236073
H       0.565005   -3.642804    0.040238
H       1.983264   -0.063769   -0.837242
H       1.797815   -0.853777    0.732701
