16

C       0.231619    0.987338   -0.744682
C       0.057157   -0.004320    0.382956
O       0.846299   -0.113611    1.290333
C      -1.215230   -0.859269    0.396887
C      -1.864098   -1.310861   -0.944440
N      -0.615144   -2.173576   -1.129734
C      -0.979526   -2.395304    0.341413
C      -2.437712   -2.519253   -0.161806
O      -3.383655   -3.240010   -0.122242
H       1.104114    1.614325   -0.557036
H       0.360837    0.438222   -1.683179
H      -0.662693    1.611643   -0.853570
H      -1.896700   -0.505413    1.176016
H      -2.277579   -0.708417   -1.750603
H      -0.817042   -3.005095   -1.692087
H      -0.371770   -3.004984    1.004848
