18

C      -0.636107    1.299326   -0.019646
C       0.110861   -0.022391   -0.103159
C       1.494184   -0.051483   -0.821579
C       2.037501   -0.903294    0.326205
O       3.010891   -1.566875    0.501199
C       0.773806   -0.616754    1.210518
C       1.110175    0.394492    2.321855
C       0.112624   -1.791446    1.753254
N      -0.423895   -2.730155    2.164257
H      -0.009895    2.100754    0.384043
H      -0.964905    1.608550   -1.017024
H      -1.527134    1.214449    0.610452
H      -0.541232   -0.787262   -0.532232
H       1.549043   -0.503158   -1.814432
H       1.984873    0.927968   -0.860716
H       1.658284    1.249791    1.917578
H       0.199530    0.761123    2.802318
H       1.736267   -0.083754    3.078617
