23

C      -0.235290    1.585670    0.137115
C      -0.033488    0.099206   -0.021306
C       0.047094   -0.459246   -1.232759
C       0.288019   -1.915387   -1.521393
C       1.794652   -2.245673   -1.620161
C       2.599406   -1.718863   -0.411421
C       2.062219   -2.190392    0.917946
C       0.985708   -1.762400    1.581556
C      -0.025001   -0.674496    1.290971
H       0.587627    2.039461    0.705110
H      -0.303123    2.092467   -0.829130
H      -1.153322    1.803478    0.699452
H       0.003715    0.200525   -2.098660
H      -0.155023   -2.535825   -0.736778
H      -0.200975   -2.198316   -2.460577
H       1.914653   -3.332206   -1.708003
H       2.213805   -1.807349   -2.534409
H       3.640940   -2.041592   -0.513962
H       2.606909   -0.626466   -0.449374
H       2.610535   -3.011842    1.376390
H       0.772452   -2.260096    2.528099
H       0.046044    0.051029    2.114538
H      -1.024199   -1.120414    1.428645
