17

O      -0.141738    1.260843   -0.965457
C       0.124027    0.154459   -0.110087
C      -1.196801   -0.594006    0.028562
C      -1.541930   -2.025189   -0.269788
C      -0.640621   -3.056103    0.436545
C       0.404875   -2.520728    1.337773
N      -0.994050   -2.536932    1.803556
C      -1.801164   -1.454399    1.114847
H       0.678740    1.748183   -1.086368
H       0.899160   -0.492032   -0.544936
H       0.481467    0.500934    0.872864
H      -1.987680    0.056612   -0.344645
H      -2.249760   -2.317673   -1.034564
H      -0.718952   -4.117225    0.221889
H       1.007251   -3.259747    1.860801
H       0.918831   -1.587222    1.160985
H      -2.729857   -1.183903    1.602051
