20

C      -0.008685    1.631265    0.219025
C       0.048219    0.102733    0.106328
C       0.840616   -0.456199   -1.122273
C       1.848661   -1.316451   -0.335286
C       0.932890   -1.936716    0.746151
N       0.779395   -0.513336    1.272501
C       2.221967   -0.351818    0.814547
C      -1.399596   -0.370649    0.170438
O      -2.058332   -0.733006   -0.769809
H       0.992913    2.065668    0.264846
H      -0.519945    2.054419   -0.650964
H      -0.547026    1.934067    1.122822
H       0.196180   -1.032305   -1.789931
H       1.325334    0.333574   -1.703109
H       2.582579   -1.892052   -0.902103
H       0.005172   -2.430018    0.441704
H       1.457762   -2.547199    1.483526
H       2.889158   -0.782721    1.564324
H       2.538573    0.666659    0.579088
H      -1.824791   -0.322998    1.198336
