18

C      -0.202484    1.443294   -0.062105
C       0.079709   -0.032084    0.028187
O       1.148663   -0.542923    0.221237
O      -1.086481   -0.736145   -0.145389
C      -1.024658   -2.109482   -0.094721
N      -2.089097   -2.756691   -0.253032
C      -2.021274   -4.175104   -0.200035
C      -3.216245   -4.895203    0.384112
C      -2.969393   -4.938761   -1.097601
H       0.723711    1.999338    0.075553
H      -0.643427    1.678626   -1.034946
H      -0.932015    1.729603    0.700811
H      -0.022069   -2.500474    0.083805
H      -1.040825   -4.620843   -0.023589
H      -3.026853   -5.785462    0.973026
H      -4.025436   -4.270351    0.742163
H      -3.612982   -4.343130   -1.733562
H      -2.607933   -5.859383   -1.541509
