15

N      -0.150267    0.180953   -1.221014
C      -0.279335    0.061137    0.116214
O       0.467362    0.554334    0.942910
C      -1.520929   -0.758368    0.561713
N      -1.517478   -2.141413    0.129891
C      -1.855322   -2.540377   -1.113195
O      -2.048780   -1.791017   -2.058897
C      -1.584375   -0.730586    2.085408
O      -1.644024   -1.735240    2.746986
H       0.662917    0.656375   -1.578533
H      -0.783342   -0.312624   -1.842739
H      -2.415524   -0.252683    0.166702
H      -1.460957   -2.812445    0.886913
H      -1.933257   -3.638266   -1.200657
H      -1.574367    0.276250    2.534093
