23

C       0.064013    1.562030   -0.061553
C       0.010484    0.032576   -0.055739
C       1.063933   -0.573787   -1.045985
C       2.067908   -0.717395    0.129289
C       0.870629   -0.567238    1.103113
O       0.996820    0.261906    2.235693
C      -1.386787   -0.547489   -0.164377
C      -2.598662    0.046808    0.512310
C      -2.494550    0.058479   -0.992984
H       1.094700    1.917860    0.013999
H      -0.355955    1.962020   -0.989675
H      -0.479776    1.989342    0.784496
H       0.743543   -1.541774   -1.441017
H       1.364466    0.059780   -1.883972
H       2.657957   -1.635468    0.187968
H       2.741303    0.140192    0.206748
H       0.476241   -1.555486    1.383917
H       1.540936   -0.193436    2.885603
H      -1.372528   -1.635983   -0.174657
H      -3.306068   -0.630689    0.977998
H      -2.488543    0.992125    1.030706
H      -2.320686    1.012976   -1.476461
H      -3.129008   -0.612428   -1.562053
