23

C      -0.193895    2.818366   -1.756095
C       0.037581    1.515132   -0.973240
C      -1.263224    0.870336   -0.462797
C      -2.034351    1.715036    0.544665
O      -3.129185    0.935049    1.004003
C       0.774270    0.525920   -1.854597
O       2.142373    0.807545   -2.169716
C       1.851825   -0.378350   -1.416898
C       2.403228   -0.467225   -0.016779
H       0.754129    3.192357   -2.152729
H      -0.872848    2.652663   -2.601071
H      -0.628287    3.599819   -1.126288
H       0.674897    1.748071   -0.112152
H      -1.925956    0.643408   -1.307916
H      -1.033669   -0.088462    0.017436
H      -1.368968    1.996981    1.378147
H      -2.385072    2.647665    0.077907
H      -3.650075    1.473876    1.606405
H       0.190400    0.201595   -2.721801
H       1.975455   -1.295332   -1.998377
H       2.263172    0.461662    0.538986
H       1.919045   -1.281929    0.532751
H       3.476954   -0.680228   -0.050161
