18

C       0.076915    1.552569   -0.165844
C      -0.106677    0.038192    0.010091
C       0.644823   -0.488717    1.200495
C       2.114320   -0.974458    1.172801
O       3.142329   -0.492270    1.963718
C       1.063087   -1.887172    1.677287
O       0.791604   -1.522899    3.061799
C       0.282028   -0.286017    2.633172
N      -0.320128    0.600902    3.279570
H       1.130969    1.804654   -0.319440
H      -0.489465    1.913506   -1.029432
H      -0.271162    2.085316    0.723006
H      -1.172655   -0.193977    0.122845
H       0.233309   -0.489977   -0.889131
H       2.454888   -1.161652    0.157435
H       2.904846   -0.674589    2.882277
H       0.782810   -2.887282    1.371773
H      -0.415698    0.352030    4.265261
