17

C       0.118243    1.510910    0.079379
C      -0.081215    0.008845   -0.129528
N       0.691677   -0.509808   -1.240967
C       1.785987   -1.301209   -1.207459
C       2.205883   -1.482010   -2.509198
C       1.275684   -0.741021   -3.277559
N       1.283182   -0.539238   -4.658990
N       0.357329   -0.156941   -2.510691
H       1.161714    1.737152    0.318123
H      -0.153051    2.053875   -0.828769
H      -0.510875    1.865223    0.901839
H       0.218349   -0.553351    0.759905
H      -1.137415   -0.208719   -0.320293
H       2.180692   -1.672561   -0.274065
H       3.052174   -2.053797   -2.853265
H       1.532876   -1.368350   -5.180885
H       0.397057   -0.172735   -4.982812
