21

C      -0.061404    1.542000    0.009581
C      -0.003036    0.020874    0.013885
O      -1.326384   -0.409587    0.216380
C       0.808701   -0.594619   -1.183648
C       2.077887   -0.436111   -0.300014
C       1.129607   -0.587059    0.929057
C       0.848160   -2.064812    1.101235
C       0.534907   -2.778906    0.014679
C       0.461038   -2.087890   -1.331518
H       0.913521    1.999468   -0.169430
H      -0.748615    1.878242   -0.773292
H      -0.444804    1.901067    0.969424
H      -1.290925   -1.346123    0.449186
H       0.771098   -0.074727   -2.144829
H       2.855237   -1.196309   -0.401167
H       2.526864    0.554958   -0.377695
H       1.373712   -0.079201    1.863949
H       0.903480   -2.514888    2.087701
H       0.334621   -3.845518    0.066315
H      -0.545930   -2.197227   -1.756946
H       1.143196   -2.571427   -2.043927
