22

C      -0.067841    1.597800   -0.073618
C      -0.170918    0.072011   -0.150919
C       0.917162   -0.545631   -1.041474
C       0.813461   -2.057125   -1.188654
C       1.060044   -2.864193    0.073119
C      -0.161794   -2.604096   -2.190902
C       1.331772   -2.695800   -2.482292
C       1.906722   -1.899730   -3.528345
N       2.375724   -1.257038   -4.369245
H       0.899163    1.909417    0.336261
H      -0.167079    2.052597   -1.065196
H      -0.850910    2.016463    0.565863
H      -0.108203   -0.345988    0.860997
H      -1.157776   -0.212237   -0.538234
H       0.871631   -0.081273   -2.033279
H       1.906820   -0.293644   -0.636764
H       0.311465   -2.636107    0.838332
H       1.011449   -3.939618   -0.123616
H       2.047293   -2.642397    0.493142
H      -0.672773   -3.537083   -1.979780
H      -0.731944   -1.900865   -2.787624
H       1.787998   -3.675505   -2.383634
