20

C       0.075142    1.550539   -0.021510
C      -0.025520    0.023930    0.011543
C      -1.468372   -0.528783    0.033428
C      -2.275714   -0.036222    1.242661
N      -2.171593   -0.154569   -1.219050
C      -2.466601   -1.245110   -1.806404
N      -2.077692   -2.410950   -1.156905
C      -1.425639   -2.065993    0.025114
N      -0.900022   -2.795218    0.922292
H       1.119052    1.858060   -0.137415
H      -0.498190    1.958896   -0.857877
H      -0.298426    2.005285    0.900728
H       0.477349   -0.391401   -0.870154
H       0.492437   -0.386620    0.885218
H      -2.384993    1.049659    1.215169
H      -3.277152   -0.476077    1.239508
H      -1.773491   -0.332916    2.167396
H      -2.988861   -1.314196   -2.756040
H      -2.227087   -3.349196   -1.488690
H      -0.986512   -3.791195    0.713299
