25

C      -0.046923    1.593639    0.025185
C       0.067418    0.067524   -0.024705
C       0.738771   -0.524519    1.220316
C       0.830654   -2.053477    1.228184
C       1.706955   -2.674676    0.119284
C       1.991371   -4.087758    0.648733
C       2.279581   -3.875489    2.149503
O       3.667922   -3.686494    2.413885
C       1.424708   -2.635337    2.539827
H       0.940319    2.062137    0.107156
H      -0.528278    1.988891   -0.874869
H      -0.637537    1.919037    0.888986
H      -0.932939   -0.371697   -0.137550
H       0.629031   -0.225069   -0.920677
H       1.750775   -0.105230    1.323412
H       0.187136   -0.195668    2.112119
H      -0.184990   -2.455657    1.103365
H       1.229519   -2.670506   -0.864103
H       2.643097   -2.104603    0.018542
H       1.094059   -4.707728    0.528945
H       2.819865   -4.602680    0.155453
H       2.016286   -4.756754    2.739993
H       3.960513   -2.911102    1.923289
H       2.081427   -1.909496    3.032986
H       0.641883   -2.885881    3.261642
