19

C      -0.401225    1.554239   -0.072847
C      -0.046218    0.058246   -0.001616
C       0.830376   -0.394096   -1.181179
C       2.092192   -0.715164   -0.856440
C       2.229952   -0.460084    0.600486
C       2.823479   -0.799984    1.987584
C       1.785941    0.369719    2.127424
O       2.409317    1.009911    0.968801
C       0.818420   -0.418965    1.192400
H       0.501967    2.163804   -0.049876
H      -0.958745    1.776199   -0.989415
H      -1.034183    1.833583    0.775853
H      -0.988002   -0.504948   -0.014449
H       0.443425   -0.392415   -2.196511
H       2.880986   -0.997591   -1.541253
H       2.582903   -1.776553    2.415848
H       3.857856   -0.498490    2.153557
H       1.585815    0.991023    3.001458
H       0.461488   -1.369052    1.600803
