18

C       0.083803    1.227920   -0.220703
C       0.081277   -0.292379   -0.024010
C       0.847067   -0.694118    1.234705
O       1.828659   -0.128395    1.640087
N      -1.273235   -0.830105    0.082554
C      -1.861181   -1.197211   -0.958602
C      -3.216986   -1.787131   -1.281756
C      -2.688303   -1.775786   -2.730873
O      -1.428301   -1.191542   -2.273875
H       1.104071    1.607140   -0.131189
H      -0.313504    1.484435   -1.205608
H      -0.534729    1.708039    0.542861
H       0.628307   -0.755150   -0.863015
H       0.424769   -1.584604    1.751346
H      -3.406516   -2.768395   -0.844120
H      -4.061814   -1.127909   -1.076261
H      -2.520104   -2.751021   -3.193160
H      -3.195419   -1.106320   -3.429052
