16

N      -0.067403   -1.149876   -0.121055
C      -0.043332    0.003581   -0.063949
C      -0.028612    1.477650   -0.031199
N      -0.734836    1.940609    1.161780
C      -0.564651    3.375769    1.386548
C       0.899368    3.658276    1.731608
C       1.811446    2.964325    0.757363
C       1.398793    1.991726   -0.049472
H      -0.515105    1.805354   -0.972895
H      -1.716230    1.698137    1.092808
H      -0.850987    3.981264    0.506797
H      -1.220243    3.668733    2.211318
H       1.085047    4.738914    1.717544
H       1.119044    3.317746    2.752023
H       2.847823    3.288944    0.714935
H       2.064261    1.519038   -0.763741
