15

C      -0.030390    1.563792    0.093781
C       0.018458    0.079586   -0.010746
C       0.053767   -0.749170   -1.093467
O       0.051925   -0.378819   -2.389443
N       0.094123   -2.082330   -0.736613
C       0.084150   -2.089046    0.566724
N       0.038670   -0.809720    1.084188
C       0.017872   -0.496449    2.441721
O       0.037655   -1.320008    3.318565
H       0.837775    1.981435    0.618541
H      -0.035952    1.979876   -0.916153
H      -0.931837    1.924172    0.604693
H       0.082329   -1.191437   -2.908863
H       0.106969   -2.950485    1.214038
H      -0.018748    0.591329    2.618551
