16

O       0.475434    0.721996    0.770377
C       0.219348   -0.382701   -0.043810
C      -1.280054   -0.719833   -0.216387
C      -1.245225   -1.453591   -1.576611
O      -0.190505   -0.817489   -2.328240
C       0.635370   -0.151343   -1.484582
N       1.594872    0.604533   -1.797577
C      -1.884280   -1.497103    0.849264
C      -2.381311   -2.161036    1.718574
H       1.161154    1.229883    0.310296
H       0.736316   -1.282098    0.331210
H      -1.808965    0.233985   -0.334191
H      -1.009388   -2.515159   -1.448184
H      -2.170105   -1.356857   -2.146634
H       1.720448    0.681493   -2.806405
H      -2.821497   -2.735819    2.495575
