19

C       0.021867    1.534206    0.015894
C      -0.000848    0.036484    0.026499
C      -0.013876   -0.802449   -1.075589
N      -0.028465   -2.118825   -0.656066
C      -0.037944   -2.131520    0.713476
C      -0.011766   -0.836827    1.150269
N      -0.024466   -0.725748    2.570916
C      -0.244952   -2.129629    3.030990
C       0.040455   -3.113618    1.837321
H       0.961890    1.937365    0.413724
H      -0.094896    1.923500   -0.999939
H      -0.785001    1.950760    0.629695
H      -0.034218   -0.559031   -2.126647
H      -0.107603   -2.913836   -1.264335
H       0.860747   -0.371142    2.922263
H       0.363043   -2.345794    3.912995
H      -1.296917   -2.228857    3.320338
H      -0.706739   -3.914356    1.815410
H       1.026884   -3.596535    1.911212
