20

C      -0.460595    1.429801   -0.130101
C       0.557024    0.325714    0.141411
N       1.142614   -0.148882   -1.107637
C       2.008314   -1.067842   -1.057155
O       2.452422   -1.668719    0.098879
C       3.428534   -2.660442   -0.232802
C       3.539116   -2.605912   -1.727593
C       2.708157   -1.674675   -2.204464
C       2.444227   -1.235850   -3.604968
H       0.014214    2.275374   -0.637030
H      -1.264268    1.062943   -0.775810
H      -0.904121    1.790608    0.803630
H       1.345000    0.695384    0.814168
H       0.077161   -0.507010    0.676630
H       4.370697   -2.420233    0.278804
H       3.087835   -3.636347    0.139549
H       4.204787   -3.243177   -2.294924
H       3.050576   -1.793252   -4.322680
H       1.386087   -1.367918   -3.853173
H       2.653078   -0.166808   -3.715596
