18

C       0.070160    1.507379    0.007479
C      -0.111404    0.001472   -0.098316
O       0.717367   -0.471994   -1.139523
C       0.771347   -1.886329   -1.282727
C      -0.500714   -2.448541   -1.926392
C       2.012834   -2.186617   -2.116297
H       1.113863    1.753773    0.222288
H      -0.208454    1.993068   -0.932139
H      -0.556884    1.913214    0.807188
H       0.159842   -0.486905    0.853537
H      -1.169738   -0.236454   -0.289990
H       0.892810   -2.339395   -0.283209
H      -0.420888   -3.533875   -2.045425
H      -1.388156   -2.247164   -1.319755
H      -0.651863   -2.002308   -2.914798
H       2.904168   -1.776942   -1.634015
H       2.145439   -3.265351   -2.241682
H       1.921616   -1.731581   -3.107823
