16

O       0.017053   -0.047239   -0.209505
C       0.076389    1.122700    0.069994
C       1.303647    1.955357    0.050850
C       1.708377    2.824685    1.260078
C       2.704143    3.671480    0.431703
N       1.854364    4.377015   -0.562348
C       1.595512    3.070356   -1.131681
C       2.988410    2.582908   -0.716336
O       2.552447    1.304401   -0.272526
H      -0.831955    1.706335    0.352508
H       0.906126    3.433363    1.687198
H       2.163897    2.204352    2.034506
H       3.476365    4.245661    0.939986
H       1.055782    4.879694   -0.177469
H       1.111377    2.952524   -2.099142
H       3.899565    2.607456   -1.308408
