17

O      -0.387921    0.091064    0.345978
C      -0.117545    1.209517   -0.000878
C       1.300160    1.748777   -0.129743
N       1.397406    2.715502   -1.199278
C       1.510763    2.236754   -2.592049
C       2.448113    3.445529   -2.881137
C       2.629440    3.514341   -1.335587
C       3.622002    3.228602   -3.703894
N       4.561201    3.049372   -4.353673
H      -0.900743    1.961868   -0.245777
H       1.521561    2.263663    0.817049
H       2.001732    0.900975   -0.215438
H       2.044651    1.278853   -2.684681
H       0.572825    2.186053   -3.151345
H       1.885969    4.304060   -3.253496
H       2.598571    4.503257   -0.869887
H       3.539052    2.985156   -1.015377
