19

N       0.090330   -1.215496    0.063826
C       0.034603   -0.061196    0.080453
C      -0.010534    1.400292    0.101770
C       1.375754    2.045609   -0.069132
C       2.057207    1.770674   -1.419535
C       3.186673    2.818950   -1.483422
C       2.684131    4.030763   -0.641145
C       1.340856    3.583230   -0.013798
H      -0.681054    1.738689   -0.698050
H      -0.464928    1.715483    1.048441
H       2.026172    1.674701    0.734019
H       2.415406    0.742850   -1.518952
H       1.332519    1.941571   -2.227076
H       4.102012    2.408906   -1.045149
H       3.429808    3.096729   -2.512102
H       3.409507    4.283663    0.137477
H       2.555911    4.929478   -1.250040
H       0.500020    3.943484   -0.620726
H       1.192114    3.969980    0.998777
