23

C       0.017772    1.478401   -0.232380
C       0.106994   -0.027715   -0.049342
O       1.168510   -0.588042    0.102964
C      -1.215097   -0.785721   -0.071168
C      -1.081336   -2.267966    0.288597
C      -2.359855   -3.069438    0.094603
C      -3.526368   -2.681017    0.985451
C      -2.673235   -3.554972   -1.302785
C      -2.208127   -4.532030   -0.247213
H       1.018170    1.900728   -0.334337
H      -0.588140    1.732365   -1.108764
H      -0.477241    1.928218    0.636399
H      -1.919041   -0.266032    0.591776
H      -1.640337   -0.672406   -1.079593
H      -0.278906   -2.697292   -0.319379
H      -0.743032   -2.355430    1.328930
H      -3.858653   -1.652866    0.801387
H      -4.386813   -3.335708    0.815596
H      -3.255474   -2.757620    2.045526
H      -3.711781   -3.594924   -1.614666
H      -1.981782   -3.305254   -2.101403
H      -1.205506   -4.937135   -0.335264
H      -2.933765   -5.230643    0.156340
