19

C      -0.301156    1.457107   -0.036274
N       0.126582    0.072640    0.007329
C       1.229278   -0.400290   -0.852323
C       1.839923   -1.166841    0.360285
C       2.116315   -2.645599    0.260729
N       2.817629   -0.359959    1.105510
C       1.878542    0.358323    1.829391
O       1.973193    1.317425    2.548355
C       0.724115   -0.491906    1.229513
H       0.507254    2.181914    0.156792
H      -0.729690    1.670387   -1.021215
H      -1.082305    1.618664    0.713332
H       0.881156   -1.019547   -1.687399
H       1.894820    0.382622   -1.244178
H       2.966383   -2.841128   -0.403769
H       2.352245   -3.064792    1.242993
H       1.248872   -3.172779   -0.147216
H       3.733399   -0.047837    0.804434
H       0.038461   -0.997942    1.912519
