15

O       0.002483    0.037642    0.064518
C      -0.014347    1.222717    0.020798
O      -1.150504    2.009157    0.004426
C      -0.704377    3.311855   -0.062258
C       0.615669    3.329918   -0.080796
C       1.226580    4.682603   -0.067190
C      -0.077204    5.558000   -0.230944
C      -1.351441    4.647327   -0.030985
O       1.098963    2.039937   -0.027164
H       1.751637    4.893523    0.872357
H       1.938678    4.860137   -0.879535
H      -0.078744    6.392334    0.472333
H      -0.097138    5.982758   -1.236534
H      -2.090655    4.805002   -0.822949
H      -1.855486    4.844165    0.923013
