23

C      -0.044356    1.516996    0.031191
C       0.022962    0.016796   -0.009086
C       0.848667   -0.794070   -1.011169
C      -0.159982   -1.984208   -0.842896
C      -0.673537   -2.628115   -2.115619
C       0.368578   -2.959442    0.224857
C       0.549447   -2.084145    1.492914
C      -0.300427   -0.845785    1.204144
C      -1.097377   -1.012387   -0.061735
H       0.899349    1.949605    0.386293
H      -0.243909    1.933117   -0.963556
H      -0.838125    1.862517    0.702267
H       0.786306   -0.358353   -2.013826
H       1.903718   -0.989493   -0.780172
H       0.126042   -3.169000   -2.635326
H      -1.473803   -3.346247   -1.900444
H      -1.073340   -1.880265   -2.808756
H      -0.375149   -3.745348    0.405266
H       1.295835   -3.451297   -0.089526
H       0.200156   -2.599727    2.392838
H       1.600403   -1.826204    1.665339
H      -0.752863   -0.309519    2.032210
H      -2.168875   -0.892005   -0.167728
