17

C      -0.011127    1.485941    0.071426
C       1.306149    0.755799    0.037478
C       2.016233    0.435162    1.366705
C       1.021219   -0.468083    2.046579
N       0.968261   -1.064115    3.227177
N      -0.197780   -1.752437    3.166444
C      -0.872571   -1.597011    1.987765
C      -0.094497   -0.754567    1.230193
C      -0.012092   -0.026566   -0.055448
H      -0.353457    1.913354    1.008819
H      -0.277326    2.061859   -0.809164
H       1.921083    0.882186   -0.845820
H       2.970035   -0.074986    1.187366
H       2.241508    1.337285    1.946124
H      -0.462797   -2.323990    3.950041
H      -1.814908   -2.091974    1.814127
H      -0.340105   -0.477714   -0.984599
