15

C      -0.058274    1.498214    0.010454
C       1.404357    1.882390   -0.001028
C       2.200657    0.797399   -0.014637
C       1.367361   -0.403216   -0.013670
N       1.743354   -1.678074   -0.024428
C       0.721658   -2.549674   -0.019829
C      -0.613446   -2.156506   -0.005116
N      -0.991913   -0.863736    0.005771
C       0.010615   -0.005846    0.001276
H      -0.584715    1.879931    0.894720
H      -0.601133    1.889905   -0.859404
H       1.737525    2.912333    0.001708
H       3.282521    0.782049   -0.024832
H       0.980017   -3.605254   -0.028245
H      -1.406375   -2.898718   -0.001919
