17

C       0.076566    1.546515    0.028463
C      -0.001638    0.048688    0.007461
C      -1.173498   -0.650806    0.061114
N      -2.426180   -0.055449    0.175107
C      -1.192473   -2.126242    0.062630
O      -2.269229   -2.731834    0.114367
C       0.108960   -2.749581   -0.011586
C       1.243848   -2.003731   -0.080335
N       1.191028   -0.646637   -0.074311
H       1.024608    1.892564    0.454806
H      -0.013065    1.986075   -0.973735
H      -0.733427    1.951179    0.641983
H      -2.598180    0.735889   -0.427794
H      -3.132528   -0.781065    0.077972
H       0.161181   -3.830744   -0.027208
H       2.235678   -2.434949   -0.143511
H       2.047160   -0.119489   -0.115123
