19

C      -0.107109    1.350603   -0.241786
C      -0.055509   -0.125994    0.061062
N       1.264646   -0.786386   -0.058625
C       0.645622   -0.675617    1.245085
C       1.239667    0.018495    2.471976
N       0.488124   -0.940368    3.329308
C       0.185759   -1.821271    2.181628
C      -1.265054   -2.216459    2.037923
O      -1.658533   -3.014153    1.222887
H       0.793277    1.853007    0.121750
H      -0.174395    1.521770   -1.321142
H      -0.980038    1.814748    0.229687
H      -0.914103   -0.701409   -0.282003
H       1.166378   -1.731079   -0.424328
H       2.331937   -0.082224    2.511228
H       0.971041    1.067016    2.638922
H       1.034652   -1.372988    4.064543
H       0.820475   -2.712418    2.072488
H      -1.952583   -1.663231    2.716041
