13

O      -0.011490    0.033178    0.260455
C       0.015625    1.198603    0.004059
O      -1.109119    1.923061   -0.276780
C      -0.794234    3.243122   -0.786908
C      -1.609053    4.255801   -0.134666
C      -2.269469    5.116755    0.377735
C       0.707619    3.407987   -0.560649
O       1.063619    3.239503    0.800621
C       1.208907    2.116787   -0.089580
H      -1.000304    3.231670   -1.865000
H      -2.855257    5.872374    0.841350
H       1.279713    4.120584   -1.145360
H       2.206074    1.718971   -0.234221
