19

C       0.081014    1.611129   -0.483654
C       0.038609    0.154559   -0.072187
C       1.173022   -0.725974   -0.398172
O       1.005327   -0.213783    0.925928
C      -1.347352   -0.440435    0.035545
C      -1.719470   -1.651763    0.938244
C      -1.640094   -0.766215    2.204702
C      -2.406901   -0.007400    1.096415
O      -3.142323   -1.257135    0.792498
H       1.113942    1.954092   -0.580133
H      -0.429422    1.760702   -1.441080
H      -0.418894    2.236901    0.263267
H       1.014765   -1.798246   -0.506582
H       2.024125   -0.326778   -0.948667
H      -1.800250   -0.518835   -0.957703
H      -1.477936   -2.707459    0.810088
H      -2.268255   -1.105640    3.029173
H      -0.661989   -0.404080    2.515684
H      -2.990271    0.912383    1.154322
