18

C      -0.131110    1.574594    0.024047
C       0.053188    0.061455   -0.001142
C       1.111489   -0.587523   -0.900650
N       1.340456   -0.638916   -2.146095
O       0.430538    0.176840   -2.856996
C       1.756495   -1.320862    0.218407
C       2.190108   -0.317473    1.287776
C       0.742784   -0.671065    1.177877
O       0.046582   -1.305909    2.186723
H       0.808800    2.093170    0.237179
H      -0.494145    1.927667   -0.943976
H      -0.857957    1.863083    0.791324
H      -0.904113   -0.434701   -0.202472
H       0.709312    0.038528   -3.768106
H       2.155340   -2.326175    0.191753
H       2.696734   -0.785061    2.126868
H       2.577364    0.658743    1.010547
H       0.033996   -0.731027    2.959455
