22

C      -1.454659    0.713637    1.120220
C      -0.345939   -0.147411    0.534426
C       0.554312    0.424069   -0.591475
C       1.753116   -0.350508    0.014819
C       3.142046    0.268877   -0.017661
C       0.952464   -0.466635    1.365085
C       1.307744    0.598941    2.383812
N       1.573988    0.134921    3.640523
O       1.358163    1.790900    2.121508
H      -1.066758    1.676464    1.460732
H      -2.225971    0.901895    0.364881
H      -1.940140    0.218645    1.969666
H      -0.762214   -1.108741    0.212022
H       0.277032    0.207019   -1.626764
H       0.688853    1.501727   -0.469188
H       1.791619   -1.355840   -0.420162
H       3.136817    1.269740    0.420172
H       3.866799   -0.343215    0.532199
H       3.496320    0.348232   -1.051630
H       0.971647   -1.457226    1.829756
H       1.538191   -0.839830    3.877783
H       1.815198    0.803202    4.354238
