18

C       0.124613    1.537265   -0.074321
C      -0.005365    0.035435    0.108688
O       0.512560   -0.629375   -1.084312
C       1.162645   -1.771687   -0.745697
N       1.435696   -2.747810   -1.501004
C       1.501360   -1.765074    0.703258
O       1.650871   -2.995204    1.311061
C       2.267601   -0.550826    1.172981
C       0.757376   -0.581876    1.271490
H       1.173918    1.839499   -0.123747
H      -0.372883    1.854528   -0.994753
H      -0.345893    2.054580    0.767398
H      -1.066257   -0.236864    0.183918
H       1.071042   -2.617505   -2.444076
H       1.776366   -3.620866    0.581476
H       2.804081   -0.695654    2.103873
H       2.755714    0.098574    0.453080
H       0.285972   -0.620176    2.245359
