23

C       0.216469    1.386913   -0.599493
O      -0.020533    0.041912   -0.939349
C       0.811406   -0.859361   -0.242434
C       0.465564   -2.279817   -0.679010
C      -0.968058   -2.650027   -0.331820
C       0.941204   -2.668880   -2.099382
C       1.847767   -3.687430   -1.375785
C       3.348122   -3.587867   -1.567464
O       1.417490   -3.201331   -0.077302
H       0.034320    1.575480    0.470269
H       1.250555    1.689755   -0.828413
H      -0.469741    2.000303   -1.188650
H       1.873901   -0.658623   -0.455051
H       0.671229   -0.766315    0.848337
H      -1.662801   -1.948255   -0.801449
H      -1.200145   -3.663506   -0.671264
H      -1.114685   -2.610926    0.752781
H       0.176077   -3.086133   -2.755646
H       1.474932   -1.876760   -2.628795
H       1.525095   -4.729176   -1.511737
H       3.689609   -2.553414   -1.461176
H       3.870119   -4.199070   -0.824235
H       3.630095   -3.946709   -2.563762
