15

C       0.002783    1.459243    0.050101
N      -0.009952    0.009617   -0.021592
C       0.536490   -0.673165    0.886297
O       1.169577   -0.005655    1.988418
C       1.749796   -0.715448    2.952845
N       1.824692   -1.989208    3.036585
C       1.231272   -2.697249    2.000687
O       1.323719   -4.030929    2.112255
C       0.606462   -2.107072    0.956076
H       1.023483    1.865553    0.059157
H      -0.516632    1.862125   -0.822472
H      -0.500124    1.834719    0.951825
H       2.185731   -0.078577    3.717948
H       1.807358   -4.207131    2.930493
H       0.150959   -2.677710    0.159992
