17

N      -0.511967   -1.069052    0.496250
C      -0.324218    0.056367    0.312682
C      -0.128690    1.482499    0.099056
C      -1.257459    2.206941   -0.612282
N      -1.489982    1.647708   -1.932667
C      -2.524228    0.617585   -2.038502
C      -2.765255    1.991009   -2.555762
C       0.753390    2.201264    1.042000
O       1.201794    1.854289   -0.262970
H      -2.156062    2.183399    0.032071
H      -0.950747    3.252029   -0.724700
H      -2.299711   -0.199818   -2.715868
H      -3.049715    0.324771   -1.131587
H      -3.455173    2.619211   -1.994001
H      -2.724036    2.199603   -3.620487
H       0.572794    3.261229    1.214417
H       1.215285    1.656508    1.862379
