15

O      -0.158110   -0.034113   -0.042421
C      -0.092965    1.156357   -0.052260
O       1.062654    1.823089    0.163934
C       1.042055    3.231320    0.132601
C       1.758774    4.043978    1.256879
C       3.176857    3.451762    1.231255
C       3.436054    3.426397   -0.076767
C       2.139213    4.006704   -0.663105
O       1.856178    5.110968    0.257399
H      -0.951244    1.831050   -0.235126
H       0.037796    3.612369   -0.073797
H       1.287207    4.334089    2.193819
H       3.764673    3.136409    2.079397
H       4.300442    3.083960   -0.624388
H       2.062541    4.258084   -1.719194
