18

C       0.091209    1.467478   -0.119618
C      -0.273158    0.014824    0.024725
N      -0.930089   -0.561391    0.939816
O       0.223506   -0.682116   -1.038834
C       0.149023   -2.077926   -0.982165
C      -1.165338   -2.762539   -1.282386
C      -0.085113   -2.762018   -2.317455
C       1.098483   -2.728742   -0.042035
O       1.910581   -2.147543    0.628353
H       1.177852    1.580813   -0.058267
H      -0.220851    1.842884   -1.098685
H      -0.376552    2.067054    0.662582
H      -1.218842    0.109638    1.647701
H      -1.387556   -3.679677   -0.747915
H      -2.009633   -2.098703   -1.416043
H      -0.180426   -2.089758   -3.161873
H       0.457620   -3.679139   -2.518610
H       1.005393   -3.839770   -0.026210
