19

O       0.023733    1.357121   -0.077071
C      -0.041256   -0.031910    0.107455
C      -1.475031   -0.514671   -0.091190
O      -2.395047    0.241193   -0.288268
C      -1.668953   -2.003591   -0.030709
C      -1.107309   -3.030244    1.010070
C      -1.947569   -3.864041    0.001161
C      -3.029042   -2.745519    0.069176
C      -1.269018   -3.047315   -1.134206
H       0.930448    1.636127    0.079398
H       0.603218   -0.588589   -0.595391
H       0.268447   -0.343082    1.120979
H      -0.026849   -3.199761    1.006394
H      -1.497970   -2.945007    2.027701
H      -2.113004   -4.941206    0.022380
H      -3.569403   -2.636731    1.012619
H      -3.696810   -2.649560   -0.789337
H      -1.808062   -2.970290   -2.081630
H      -0.198952   -3.211643   -1.288992
