17

C      -0.010481    1.478636    0.030188
C       0.034431   -0.028266   -0.013358
C      -0.018185   -0.744622   -1.323280
C      -0.526591   -1.961576   -1.130557
C      -0.707816   -2.153555    0.353606
C       0.707403   -2.267026    1.015009
C       0.636860   -0.758194    1.165898
N      -0.856188   -0.740263    0.936151
H       0.893338    1.910170   -0.413654
H      -0.877225    1.854133   -0.523440
H      -0.089287    1.834373    1.060941
H       0.325989   -0.311054   -2.253658
H      -0.645481   -2.749182   -1.863937
H      -1.475792   -2.853985    0.678965
H       0.644698   -2.743991    1.995747
H       1.517746   -2.717486    0.433988
H       1.096610   -0.195654    1.974578
