17

C      -0.408970    1.058956    0.100420
O       0.131872   -0.246444   -0.021174
C       0.870208   -0.458498   -1.213507
C       1.521340   -1.836777   -1.116887
C       0.391641   -2.750945   -1.606511
O      -0.332491   -1.965657   -2.574647
C      -0.072573   -0.639437   -2.399901
N      -0.561712    0.295739   -3.096021
H       0.388929    1.816897    0.110874
H      -1.099831    1.294671   -0.716735
H      -0.941003    1.087865    1.054059
H       1.572249    0.365020   -1.390200
H       2.379121   -1.892709   -1.793402
H       1.849937   -2.059956   -0.101036
H       0.736056   -3.658781   -2.106069
H      -0.289983   -3.023292   -0.793931
H      -1.200973   -0.079161   -3.800736
