16

N      -0.180009    1.287244    0.049121
C       0.008691   -0.060481    0.128860
O       1.029485   -0.608616    0.474269
O      -1.139575   -0.704868   -0.213109
C      -1.095558   -2.119507   -0.095024
C      -1.420134   -2.766719    1.296728
C      -2.576793   -3.497691    0.603149
O      -3.455383   -2.485386    0.108724
C      -2.314476   -2.823394   -0.684392
H       0.641751    1.863542    0.094964
H      -0.995517    1.643703   -0.418390
H      -0.152129   -2.496272   -0.493915
H      -0.611328   -3.403890    1.657461
H      -1.734228   -2.072770    2.078281
H      -2.995494   -4.477112    0.798730
H      -2.492237   -3.132035   -1.707759
