16

O       0.026859   -0.017444   -0.371126
C       0.004698    1.149834   -0.075327
C      -1.269056    1.931343    0.169162
C      -1.696316    2.673539   -1.111657
C      -0.716422    3.684299   -1.634319
C       0.575714    3.863574   -1.345083
N       1.430830    3.157561   -0.485580
C       1.330834    1.915456    0.100091
O       2.235245    1.446962    0.757186
H      -2.046503    1.221384    0.460898
H      -1.119023    2.651339    0.981562
H      -1.916869    1.931555   -1.892200
H      -2.648403    3.180150   -0.911862
H      -1.115832    4.372351   -2.373470
H       1.102974    4.676707   -1.832664
H       2.343094    3.566488   -0.333488
