22

C      -0.025336    1.562115    0.010620
C       0.000950    0.031477    0.002610
C      -1.400983   -0.592807    0.011846
C      -1.395654   -2.101900    0.004226
C      -0.770887   -3.064151    1.069141
C      -1.404743   -3.989754   -0.005227
C      -2.638709   -3.046379    0.009007
C      -0.787360   -3.053328   -1.079798
H       0.986293    1.980083    0.003722
H      -0.553535    1.953563   -0.866095
H      -0.537789    1.944600    0.900536
H       0.547428   -0.322024   -0.880928
H       0.562985   -0.330938    0.872677
H      -1.950583   -0.242068    0.896811
H      -1.966080   -0.233240   -0.859715
H       0.320418   -3.075490    1.144924
H      -1.238867   -3.066104    2.058506
H      -1.410363   -5.080241   -0.010676
H      -3.248773   -3.045844    0.917648
H      -3.262674   -3.036691   -0.890092
H      -1.270427   -3.045359   -2.061855
H       0.302657   -3.063806   -1.172381
