15

O      -0.106210   -0.030285    0.134925
C      -0.028485    1.172857    0.025990
C       1.241552    1.904229    0.024098
C       1.396272    3.223072   -0.107554
C       2.869249    3.564652   -0.094669
O       3.525428    2.326631    0.187426
C       2.589637    1.245990    0.151404
C       3.304992    4.148744   -1.369219
C       3.648123    4.634884   -2.412918
H      -0.935079    1.806883   -0.080889
H       0.619891    3.965863   -0.239272
H       3.109234    4.272314    0.713981
H       2.684443    0.656013    1.070910
H       2.796443    0.576288   -0.695305
H       3.961602    5.061664   -3.333904
