19

N       0.065219   -1.186915    0.041978
C       0.038624   -0.032204    0.014543
C      -0.007678    1.440719    0.019135
C      -0.807573    1.928863    1.258823
C      -1.392804    3.347467    1.092350
O      -0.688416    4.191861    0.203349
C       0.700264    4.346602    0.449810
C       1.509091    3.356755   -0.399287
N       1.364183    1.942059   -0.073329
H      -0.532340    1.755468   -0.891453
H      -1.630546    1.238567    1.472993
H      -0.133493    1.877909    2.121307
H      -2.399260    3.284109    0.667501
H      -1.484313    3.817561    2.084149
H       0.961885    5.371314    0.158420
H       0.931417    4.237258    1.520510
H       1.208864    3.502694   -1.444529
H       2.575358    3.601605   -0.334018
H       1.862308    1.714903    0.781121
