20

C      -0.145363    1.449806    0.141912
O       0.280650    0.132663   -0.134221
C       0.776986   -0.534280    0.993904
C      -0.238224   -1.166735    2.004324
N       0.378882   -2.521904    1.802128
C      -0.250556   -3.414065    0.798967
C      -0.826099   -2.730281   -0.410439
C       0.665595   -2.900297   -0.317244
C       1.289339   -1.977046    0.735161
H       0.675670    2.061634    0.547041
H      -0.482184    1.886628   -0.801039
H      -0.978314    1.472680    0.860426
H       1.530414    0.090115    1.497862
H      -0.141374   -0.829289    3.040102
H      -1.286424   -1.089155    1.699478
H      -0.526521   -4.425072    1.078334
H      -1.302870   -3.415018   -1.105888
H      -1.276447   -1.746305   -0.377421
H       1.233730   -3.453787   -1.053810
H       2.359560   -2.140513    0.890610
