18

O      -0.061532    0.254674   -0.969331
C      -0.026828    1.259880   -0.293000
N       1.070607    1.729749    0.362095
C       2.371243    1.072553    0.319869
C       3.349656    1.847507   -0.581942
O       4.661429    1.338022   -0.461930
C       5.207975    1.523679    0.829557
C       4.250068    1.175480    1.934521
C       2.960242    0.944878    1.702372
H      -0.908639    1.911440   -0.131641
H       0.983535    2.586560    0.887050
H       2.181377    0.086049   -0.115841
H       3.065951    1.749420   -1.632604
H       3.316889    2.918012   -0.314419
H       6.096553    0.883534    0.879004
H       5.559950    2.564814    0.955441
H       4.662330    1.113170    2.938145
H       2.281236    0.666252    2.503809
