19

O      -0.083088    1.405586    0.003319
C       0.018553   -0.025497    0.025465
C      -1.431410   -0.544187    0.051474
C      -1.500982   -2.029599   -0.308509
C      -0.970296   -2.276679   -1.728155
C       0.287474   -1.496756   -2.002106
C       0.737093   -0.517020   -1.221536
C       0.766386   -0.449294    1.220797
C       1.405741   -0.769805    2.188180
H       0.791848    1.764099    0.189173
H      -1.864493   -0.346577    1.035309
H      -1.985783    0.053992   -0.680475
H      -0.901328   -2.600681    0.410473
H      -2.530714   -2.390079   -0.219366
H      -0.784534   -3.345977   -1.888462
H      -1.732158   -1.998188   -2.472034
H       0.845572   -1.759213   -2.898336
H       1.663131    0.002608   -1.455757
H       1.963722   -1.058762    3.044552
