19

C       0.046339    1.530422    0.099468
C       0.043406    0.043652   -0.004236
C       0.040583   -0.776532   -1.110225
O       0.040426   -0.308441   -2.399967
C       0.038638   -2.140141   -0.690407
C       0.035488   -3.347733   -1.574929
C       0.040380   -2.112657    0.693790
N       0.039702   -3.122945    1.686566
N       0.043345   -0.800689    1.089436
H       0.932964    1.914364    0.621281
H       0.043385    1.959209   -0.905202
H      -0.835199    1.917187    0.627749
H       0.033291   -1.063575   -2.994424
H       0.917641   -3.393172   -2.228320
H       0.035187   -4.263705   -0.976020
H      -0.848961   -3.390877   -2.225411
H       0.855581   -3.722963    1.620384
H      -0.778323   -3.720211    1.622052
H       0.044929   -0.521220    2.055056
