19

C      -0.144748    1.553825   -0.028307
C       0.013325    0.039594   -0.015353
O      -1.259699   -0.556473   -0.168637
C       1.211345   -0.658974   -0.754777
C       2.140137   -0.147863    0.382090
C       0.855081   -0.665566    1.111133
C       0.943396   -1.902370    0.145121
C       0.582378   -0.658758    2.518688
C       0.346633   -0.638916    3.698522
H       0.789859    2.099623    0.100302
H      -0.577195    1.873758   -0.985354
H      -0.832898    1.854339    0.767437
H      -1.729149   -0.083748   -0.862688
H       1.420057   -0.653578   -1.825008
H       3.034545   -0.746991    0.562302
H       2.366836    0.916022    0.442738
H       0.021394   -2.452309   -0.022319
H       1.798016   -2.560231    0.316311
H       0.137736   -0.627545    4.739379
