20

O       0.088359    1.415853   -0.119275
C       0.060519    0.013243   -0.048713
C      -1.369412   -0.555870    0.047243
C      -1.412191   -2.077716   -0.145735
C      -2.809722   -2.622137    0.154499
C      -3.182191   -2.332078    1.606864
N      -2.913156   -0.939144    1.944956
C      -2.024058   -0.097711    1.351573
O      -1.789322    1.005001    1.839541
H      -0.444162    1.710230    0.637801
H       0.529461   -0.369181   -0.963251
H       0.652311   -0.369592    0.801760
H      -1.952009   -0.077800   -0.753200
H      -1.110120   -2.325037   -1.168697
H      -0.681359   -2.556819    0.520609
H      -3.540388   -2.150988   -0.514014
H      -2.861233   -3.701705   -0.017055
H      -4.244468   -2.534489    1.781374
H      -2.614195   -2.998797    2.273232
H      -3.286605   -0.579022    2.812427
