18

C      -0.092645    1.448430    0.020764
N      -0.030025    0.004063    0.009020
C      -0.012259   -0.795461   -1.115264
C       0.035140   -2.112982   -0.725251
C       0.053628   -3.309147   -1.628305
C       0.069951   -2.113409    0.702058
C       0.032390   -0.801651    1.123663
N      -0.027087   -0.219961    2.409556
H       0.898986    1.907292   -0.083831
H      -0.722170    1.796598   -0.802260
H      -0.529175    1.772103    0.967634
H      -0.032599   -0.355187   -2.100218
H       0.952540   -3.920017   -1.480343
H      -0.807800   -3.965461   -1.454289
H       0.030378   -3.008489   -2.680212
H       0.119959   -2.978785    1.347139
H      -0.337229   -0.903767    3.088960
H       0.874373    0.131793    2.720950
