21

C       0.710978    1.553161   -0.124905
C       1.577037    0.331958    0.095130
C       0.088506    0.193229   -0.035520
C      -0.856979   -0.360048    1.040652
C      -1.430689   -1.366817   -0.005669
C      -2.930690   -1.249233   -0.339819
C      -2.955098   -0.210327   -1.439544
C      -1.736732    0.122550   -1.867389
C      -0.642914   -0.606658   -1.131646
H       0.568125    2.235765    0.707281
H       0.750951    2.040293   -1.094246
H       2.199058   -0.007915   -0.727753
H       2.021298    0.189122    1.075754
H      -0.376537   -0.803417    1.917512
H      -1.603520    0.364197    1.383332
H      -1.107670   -2.393006    0.174096
H      -3.359965   -2.200398   -0.684278
H      -3.523437   -0.946977    0.533954
H      -3.882155    0.196068   -1.831196
H      -1.531170    0.841651   -2.653653
H       0.007409   -1.184504   -1.798598
