19

C      -0.034669    1.541859   -0.011381
C       0.013576    0.008767    0.044691
C       0.858223   -0.459742    1.238549
C      -1.413063   -0.567136    0.067013
C      -1.480214   -2.102039   -0.080292
C      -2.848199   -2.602286   -0.143694
C      -3.985736   -2.987910   -0.194193
H       0.972590    1.967836   -0.065620
H      -0.596011    1.892777   -0.883557
H      -0.519619    1.950944    0.883086
H       0.501644   -0.345786   -0.875414
H       1.860826   -0.021309    1.201833
H       0.397357   -0.153235    2.185511
H       0.978105   -1.547030    1.262697
H      -1.913523   -0.276197    0.999442
H      -1.995146   -0.119436   -0.746518
H      -0.940237   -2.403658   -0.988133
H      -0.960815   -2.585436    0.755701
H      -4.985829   -3.340867   -0.240445
