23

C       0.270235    1.521609   -0.292164
C       0.035840    0.031614   -0.037789
C      -1.440321   -0.342654   -0.069150
O       0.677818   -0.800351   -1.015224
C       2.078820   -0.803847   -0.961484
C       2.789833   -1.664044   -1.981377
C       2.032909   -2.557560   -2.937998
C       2.775495   -0.149623   -2.133235
O       1.961736    0.441940   -3.099478
H       1.336261    1.761896   -0.308722
H      -0.164456    1.827194   -1.249769
H      -0.199093    2.115628    0.498557
H       0.452497   -0.228034    0.948746
H      -1.873467   -0.106264   -1.046486
H      -1.568239   -1.412617    0.112960
H      -1.992592    0.212431    0.694621
H       2.486636   -0.728364    0.045581
H       3.730386   -2.076744   -1.623464
H       1.171783   -2.044175   -3.368548
H       2.681855   -2.865970   -3.763884
H       1.670311   -3.460067   -2.435511
H       3.697183    0.405608   -1.984488
H       1.052354    0.296346   -2.803998
