21

C       0.047819    1.336807    0.178673
O      -0.138737   -0.028398   -0.134335
C       0.615217   -0.521182   -1.200197
C       0.681727   -2.070369   -1.204441
C       2.241708   -1.999638   -1.301626
C       2.177168   -0.443302   -1.293335
C       2.038021    0.312384   -2.639066
C       1.252778   -0.461931   -3.659479
C       0.507544    0.235297   -2.556235
H       1.096491    1.561596    0.419381
H      -0.269269    2.002072   -0.635427
H      -0.565703    1.543064    1.058812
H       0.324486   -2.473249   -0.254726
H       0.159370   -2.575721   -2.020075
H       2.746531   -2.412675   -0.425591
H       2.686789   -2.448423   -2.192962
H       2.768008    0.078444   -0.540667
H       2.663620    1.147634   -2.932155
H       1.171890    0.017940   -4.630532
H       1.303639   -1.544341   -3.721199
H      -0.240005    0.988676   -2.776276
