18

O      -0.261617    1.519679    0.437380
C      -0.315229    0.359645   -0.379969
C      -1.470893   -0.495919   -0.111113
C      -2.419478   -1.197442    0.136316
C      -3.564523   -2.047962    0.474716
O      -3.168136   -3.367351    0.843693
C      -4.422781   -1.390981    1.545411
C      -5.633073   -0.629031    1.151674
N      -5.754330   -1.929730    1.829320
H      -0.323555    1.231799    1.354072
H      -0.353377    0.724856   -1.412216
H       0.605171   -0.239632   -0.291167
H      -4.184211   -2.194251   -0.419990
H      -2.545633   -3.291450    1.575762
H      -3.869875   -1.080676    2.430733
H      -5.952028    0.227296    1.738212
H      -5.865944   -0.561929    0.091515
H      -5.980133   -2.665727    1.163472
