23

C      -0.144474    1.558917   -0.314087
C       0.012538    0.094059    0.111675
C      -1.316247   -0.631520    0.167549
C      -1.905794   -1.376230   -0.996285
O      -0.880827   -1.991303   -1.783936
C      -0.501217   -2.825457   -0.656935
C      -1.519098   -2.139312    0.258949
C      -2.333463   -2.806402    1.336947
C      -3.020642   -4.109253    0.906635
H       0.824255    2.066969   -0.348856
H      -0.597436    1.630553   -1.308277
H      -0.784738    2.110535    0.383640
H       0.672013   -0.416091   -0.596872
H       0.500439    0.045247    1.093777
H      -2.082780   -0.111298    0.743263
H      -2.854386   -1.170808   -1.481202
H      -0.740071   -3.873351   -0.869079
H       0.562155   -2.736062   -0.404635
H      -1.691014   -3.003313    2.206983
H      -3.092986   -2.096127    1.686220
H      -3.627608   -4.514451    1.722021
H      -3.677429   -3.942886    0.046477
H      -2.293964   -4.878165    0.626098
