17

N       0.178664    1.301034    0.501664
C      -0.027502   -0.043297    0.010804
C      -1.505126   -0.431188   -0.167260
O      -2.211247    0.702601   -0.651899
C      -1.473191   -1.487700   -1.269919
N      -2.461599   -2.241958   -1.528109
N      -0.251456   -1.352096   -1.917449
C       0.590955   -0.397852   -1.347735
N       1.674010    0.096677   -1.780267
H       1.143254    1.561010    0.311562
H      -0.405441    1.932719   -0.038482
H       0.410517   -0.754972    0.726074
H      -1.962549   -0.824426    0.745731
H      -3.085079    0.396533   -0.920212
H      -2.298819   -2.832316   -2.346204
H      -0.039377   -1.825955   -2.783670
H       1.939756   -0.269791   -2.695450
