21

C      -0.308542    1.044341    0.242506
O      -0.349780   -0.263702   -0.285882
C       0.602947   -0.553255   -1.299158
C       0.131687    0.058857   -2.613302
C       2.117491   -0.548450   -0.884782
C       1.798772   -1.714294    0.099293
C       1.058374   -2.051162   -1.240419
O       0.308181   -3.165009   -1.558892
C       2.358126   -1.646392   -1.968738
H       0.668428    1.273447    0.692179
H      -0.531352    1.813048   -0.510724
H      -1.072877    1.096356    1.022238
H       0.048118    1.146911   -2.530479
H       0.792808   -0.151069   -3.453877
H      -0.861224   -0.333076   -2.854259
H       2.749455    0.315725   -0.692739
H       2.639860   -2.365129    0.347604
H       1.181404   -1.485229    0.965149
H      -0.470266   -3.166072   -0.990002
H       2.298455   -1.364960   -3.019033
H       3.217434   -2.294341   -1.784852
