17

C       0.029591    1.532087   -0.066328
C       1.551623    1.539483   -0.120699
C       2.163179    0.669369    0.961927
O       1.755797    0.535748    2.293136
C       0.374439    0.270096    2.527670
C      -0.309254   -0.493720    1.383697
N       0.021314    0.032426    0.054028
C       1.483368   -0.000877   -0.171455
H      -0.456850    2.088674    0.740469
H      -0.430201    1.823406   -1.016066
H       2.158935    2.211542   -0.714980
H       3.248886    0.662491    0.930352
H       0.326624   -0.312058    3.453975
H      -0.148438    1.218798    2.715758
H      -0.003378   -1.546165    1.392875
H      -1.394635   -0.465921    1.535941
H       1.918109   -0.728184   -0.849975
