16

O      -0.030189    1.287239   -0.713949
C       0.059223    0.186979    0.171793
C      -1.281998   -0.497793    0.312378
N      -1.729323   -1.238267   -0.884065
C      -1.498246   -1.969150    0.365397
C      -0.373742   -2.996230    0.361956
C      -0.847229   -4.308298   -0.080881
N      -1.241389   -5.339450   -0.421632
H      -0.360103    0.933779   -1.548720
H       0.825718   -0.528134   -0.159637
H       0.379189    0.591868    1.137652
H      -2.029589    0.106373    0.824014
H      -2.722462   -1.110010   -1.052961
H      -2.374228   -2.297493    0.921317
H       0.430583   -2.674050   -0.303939
H       0.049384   -3.100280    1.368029
