17

C      -0.173174    1.542898    0.016934
C       0.027816    0.035931    0.053431
C       1.151938   -0.610731   -0.799590
C       2.184377   -0.203697    0.272605
C       0.960957   -0.549029    1.195745
O       0.863456   -0.234179    2.527920
C       0.824470   -2.018809    0.841025
O       0.632837   -2.954630    1.563805
O       0.957538   -2.044063   -0.512299
H       0.757633    2.109078    0.098781
H      -0.666216    1.839955   -0.914533
H      -0.817035    1.847384    0.847430
H      -0.935828   -0.473309   -0.051165
H       1.278832   -0.474200   -1.869241
H       3.083268   -0.817739    0.356352
H       2.436050    0.855472    0.269611
H       0.693825   -1.063816    2.999402
