17

N       0.063949   -1.145102    0.093981
C      -0.008935    0.010874    0.074550
C      -0.056048    1.438056    0.049568
C      -1.216805    2.108958   -0.004652
C      -1.229629    3.611876   -0.020969
C      -0.042075    4.176019    0.770349
N       1.241914    3.605261    0.323700
C       1.908315    2.678770    1.241362
C       1.241902    2.177211    0.006437
H      -2.157821    1.569061   -0.027709
H      -1.197760    3.968328   -1.060236
H      -2.165654    3.989181    0.402665
H       0.014979    5.262673    0.649323
H      -0.213425    3.976032    1.836832
H       2.991608    2.748851    1.284917
H       1.420355    2.468211    2.191279
H       1.872776    1.909048   -0.840228
