13

O       0.044127    0.002623    0.247846
C      -0.031316    1.191116    0.190850
C      -1.286386    2.058513    0.118607
C      -0.766254    3.456405    0.497730
C       0.711888    3.372956    0.032050
O       1.070713    1.998319    0.176903
C      -1.492022    4.571454   -0.095622
N      -2.059045    5.456376   -0.575700
H      -1.667033    2.035231   -0.907762
H      -2.063805    1.671251    0.776306
H      -0.789188    3.569440    1.586863
H       0.814816    3.672347   -1.016493
H       1.385777    3.972563    0.645113
