18

C      -0.066560    1.504617   -0.157149
C      -0.055399    0.005578    0.174132
C      -1.396012   -0.629307   -0.004596
O      -2.469592   -0.185857    0.892077
C      -2.855364   -1.522620    1.095495
N      -3.678248   -2.000184    1.908512
C      -1.920697   -2.071005    0.081729
C      -2.054177   -1.212692   -1.197879
O      -3.248634   -0.755552   -1.723628
H       0.923477    1.941485   -0.000158
H      -0.353533    1.676510   -1.199190
H      -0.777854    2.035852    0.481540
H       0.657064   -0.521481   -0.471219
H       0.276211   -0.150233    1.207720
H      -4.111230   -1.268453    2.474109
H      -1.420227   -3.028163    0.111252
H      -1.384173   -1.548926   -1.984718
H      -3.655973   -0.190310   -1.054233
