22

C      -1.291344    0.343569    0.054836
C       0.225491    0.552060    0.138224
C       0.915567   -0.337770    1.186181
C       1.140874    0.444190    2.484292
C       0.655086   -1.797314    1.521521
C       0.653169   -2.802396    0.358343
C       0.864332   -2.262713   -0.997113
N       2.030507   -2.389596   -0.092792
C       2.020770   -1.356638    1.022081
H      -1.758749    0.484318    1.035097
H      -1.748340    1.057134   -0.637983
H      -1.541103   -0.666238   -0.283819
H       0.684585    0.450822   -0.847623
H       0.416986    1.593354    0.424180
H       0.191009    0.834896    2.866443
H       1.585478   -0.177809    3.266819
H       1.807351    1.295646    2.309255
H       0.367300   -2.099036    2.521301
H       0.431034   -3.851275    0.532001
H       0.920028   -2.996636   -1.797547
H       0.481072   -1.305171   -1.308045
H       2.960963   -1.260747    1.553327
