22

C      -0.154274    1.530178   -0.021534
C      -0.029427    0.010830    0.056775
C       1.063583   -0.598655   -0.874031
C       2.016149   -0.669942    0.355471
C       0.777503   -0.510913    1.285270
N       2.946637   -1.773310    0.523685
C       4.361613   -1.479163    0.698927
C       2.534538   -3.071822    0.521551
O       3.250518   -4.044945    0.655669
H       0.818552    2.023743    0.087313
H      -0.575370    1.841037   -0.983624
H      -0.807751    1.912339    0.769978
H      -1.018017   -0.441472   -0.055805
H       0.787434   -1.592298   -1.234618
H       1.396464    0.001415   -1.725603
H       2.618687    0.239347    0.398307
H       0.883793    0.158515    2.143542
H       0.406632   -1.475571    1.639539
H       4.527062   -0.868361    1.594036
H       4.888387   -2.426877    0.807754
H       4.760594   -0.941053   -0.168799
H       1.441681   -3.162305    0.380524
