18

O      -0.064951    1.371503    0.064668
C       0.035384   -0.011550    0.003845
C       0.338487   -0.819127   -1.291378
N      -0.381167   -1.959864   -0.599733
C       0.586219   -2.206722    0.526750
C       0.905688   -0.764184    1.029839
C      -1.265922   -0.887053   -0.007190
C      -2.055146   -1.102235    1.251407
O      -2.024027   -2.074282    1.965019
H       0.738523    1.728663    0.455522
H      -0.222581   -0.473388   -2.161697
H       1.378635   -1.030954   -1.555573
H       0.115817   -2.830851    1.282733
H       1.461593   -2.720641    0.123830
H       1.962666   -0.492603    0.937860
H       0.590484   -0.583186    2.061097
H      -1.954514   -0.515561   -0.775161
H      -2.708090   -0.233215    1.498604
