20

C       0.114040    1.640436    0.103143
C       0.090189    0.136842    0.279239
C       1.141831   -0.824168   -0.207737
C       2.560075   -0.264559   -0.043440
C       2.306724   -0.062949    1.479351
C       0.886127   -0.644594    1.293517
C       3.180776   -0.949228    2.360983
N       3.161460   -0.606873    3.684788
O       3.829947   -1.890199    1.946816
H       1.119654    2.058266    0.197953
H      -0.262120    1.919016   -0.887308
H      -0.520462    2.132332    0.849031
H      -0.908712   -0.283787    0.169360
H       0.888039   -1.669899   -0.835533
H       3.324857   -1.029738   -0.181974
H       2.816747    0.625606   -0.625578
H       2.335970    0.967267    1.852703
H       0.413795   -1.325615    1.992714
H       2.546918    0.104432    4.040095
H       3.616235   -1.221407    4.340200
