23

C       0.228439    0.806939    0.743313
C      -0.315063    0.594929   -0.681586
C      -1.579943   -0.133039   -0.708235
C      -2.623690   -0.734693   -0.699594
C      -3.886513   -1.462787   -0.701725
C      -3.857726   -2.811027    0.074677
C      -5.259918   -3.436331    0.050050
C      -2.820528   -3.766411   -0.515333
O      -3.446396   -2.594667    1.423982
H       1.178006    1.350024    0.714023
H      -0.479389    1.381668    1.346847
H       0.392754   -0.152090    1.241729
H      -0.443853    1.568506   -1.172477
H       0.430338    0.055188   -1.280081
H      -4.675666   -0.833923   -0.263696
H      -4.203575   -1.659173   -1.734530
H      -5.586903   -3.655293   -0.971739
H      -5.262204   -4.367869    0.622330
H      -5.997049   -2.759503    0.498845
H      -1.831047   -3.304439   -0.498426
H      -2.785818   -4.686545    0.074289
H      -3.070920   -4.023155   -1.548966
H      -4.052398   -1.961668    1.823996
