21

C      -0.109321    1.625845    0.613679
C       0.068375    0.137337    0.343217
C       1.292819   -0.422203   -0.459188
C       2.160230   -0.150435    0.810222
C       0.844285   -0.794838    1.335798
C       0.972662   -1.830870    0.145958
C      -0.242581   -2.655459   -0.300684
C       2.118105   -2.819392    0.235481
O       3.106598   -2.820624   -0.453955
H       0.798187    2.136348    0.942293
H      -0.460369    2.130483   -0.293406
H      -0.872244    1.779902    1.385095
H      -0.894741   -0.258604    0.017296
H       1.559893   -0.212450   -1.495729
H       3.080478   -0.723538    0.910123
H       2.333372    0.891240    1.074079
H       0.581643   -1.025233    2.370884
H      -1.186902   -2.114743   -0.235425
H      -0.116630   -2.991360   -1.335696
H      -0.341467   -3.552320    0.322334
H       1.952757   -3.626324    0.990737
