19

C      -0.399746    1.372152    0.358816
C      -0.208577   -0.140741    0.214357
C       0.941440   -0.650927    1.066634
O       0.680788   -0.512060    2.497723
C       0.620619   -1.928407    2.699461
C      -0.734448   -2.416927    2.970026
N      -1.803056   -2.833287    3.119514
C       1.112406   -2.187519    1.219179
N       0.422074   -3.042654    0.299747
H       0.490344    1.917547    0.025979
H      -1.248145    1.719121   -0.237558
H      -0.586238    1.637401    1.403304
H      -1.133710   -0.656232    0.498924
H      -0.002397   -0.409662   -0.828313
H       1.865424   -0.119449    0.806896
H       1.291070   -2.260650    3.500112
H       2.166542   -2.470974    1.234623
H       0.677681   -4.014508    0.431627
H      -0.585927   -2.977276    0.398430
