19

C      -0.690390    1.065158    0.050702
C       0.200751   -0.168698   -0.065025
C       1.307213   -0.077244   -1.146900
C       2.467004   -0.815385   -0.533166
C       2.267351   -1.101832    0.753412
C       0.944051   -0.552255    1.252541
O       1.149930    0.518824    2.177029
C       0.188517   -1.602235    2.070274
O      -0.586077   -2.402461    1.616706
H      -0.113921    1.951372    0.332700
H      -1.183767    1.270150   -0.904841
H      -1.468372    0.924864    0.806943
H      -0.422234   -1.037943   -0.299326
H       0.987316   -0.517215   -2.098379
H       1.584865    0.962474   -1.373361
H       3.367263   -1.060559   -1.087418
H       2.965582   -1.600867    1.416059
H       1.889172    1.044816    1.854596
H       0.439134   -1.568270    3.152945
