23

C       0.933454   -0.446048    1.223416
C       0.175559   -0.141273   -0.076977
C       0.977191   -0.606251   -1.300492
C      -1.284377   -0.690436   -0.031238
C      -2.089729   -0.332377   -1.286301
O      -2.034900    1.075447   -1.461924
C      -1.335794   -2.208131    0.163577
C      -1.770643   -2.717789    1.524190
O      -1.057617   -2.968623   -0.739041
H       1.897560    0.072247    1.234003
H       0.373019   -0.118755    2.106433
H       1.142039   -1.517095    1.331370
H       0.059170    0.945100   -0.149789
H       1.045670   -1.696264   -1.350174
H       0.527163   -0.253345   -2.232361
H       1.993359   -0.200447   -1.254343
H      -1.773556   -0.212814    0.826840
H      -1.675097   -0.870668   -2.147428
H      -3.130029   -0.672596   -1.157953
H      -2.485767    1.292539   -2.282861
H      -2.799639   -2.395831    1.726077
H      -1.715175   -3.806803    1.553897
H      -1.147712   -2.285876    2.314501
