21

C      -0.385457    1.459620   -0.112723
C       0.147169    0.032078    0.071721
C       0.877626   -0.518157   -1.130807
O       0.055934   -0.884277   -2.251511
C       0.792098   -1.926457   -1.559832
C       2.088364   -2.277313   -2.208540
C       2.893736   -1.213453   -2.212314
C       2.264502    0.006749   -1.560402
C       2.217278    1.209836   -2.518207
H       0.424408    2.187496   -0.219103
H      -1.017196    1.522275   -1.003708
H      -0.985915    1.760352    0.751090
H       0.817829   -0.008040    0.939705
H      -0.691577   -0.638011    0.290315
H       0.170380   -2.666010   -1.062495
H       2.307963   -3.251659   -2.627281
H       3.874391   -1.167224   -2.675099
H       2.835323    0.290318   -0.664215
H       1.561760    0.984205   -3.363066
H       1.843883    2.108157   -2.019691
H       3.216014    1.434878   -2.906016
