13

N      -0.071825   -1.227519   -0.092768
C      -0.068729   -0.071420   -0.068195
C      -0.054207    1.382462   -0.027409
C      -0.022959    2.063856    1.367613
C       1.515496    1.844229    1.523050
O       1.799080    3.240043    1.827099
C       0.762088    3.291632    0.809337
C       1.328488    2.088962   -0.008086
H      -0.782152    1.788339   -0.735118
H      -0.779131    2.053751    2.150285
H       2.063314    1.063853    2.046969
H       0.397991    4.259877    0.469330
H       2.097513    2.107192   -0.777983
