17

N      -0.034182    1.344253    0.104944
C      -0.091857   -0.008982    0.072753
N      -1.145686   -0.743306    0.126359
C      -0.757226   -2.148696    0.014244
C      -1.006764   -2.759687   -1.398629
C       0.517381   -2.703139   -1.685463
C       0.781900   -2.211242   -0.214559
C       1.205228   -0.770359   -0.093874
O       2.302362   -0.264719   -0.127828
H       0.879042    1.748544    0.239057
H      -0.837813    1.864597    0.413549
H      -1.172514   -2.717349    0.850114
H      -1.406630   -3.775890   -1.369622
H      -1.644104   -2.146436   -2.037975
H       0.983544   -3.664980   -1.903873
H       0.825659   -1.992984   -2.455999
H       1.390822   -2.880132    0.393156
