19

O       0.025507   -0.057426   -0.027005
C      -0.007528    1.149953    0.014512
C      -1.326596    1.908889    0.074222
C      -1.827293    2.259430   -1.347835
C      -1.042091    3.368625   -2.062581
C       0.473538    3.101543   -2.227851
C       1.197335    3.234085   -0.894404
O       1.671962    4.285780   -0.534867
C       1.273181    1.984020   -0.017899
H      -2.054919    1.257287    0.563333
H      -1.219917    2.825358    0.667679
H      -1.814092    1.344110   -1.952376
H      -2.875896    2.567151   -1.275427
H      -1.474629    3.514574   -3.058128
H      -1.167555    4.318325   -1.528002
H       0.631109    2.104308   -2.656999
H       0.899912    3.845934   -2.904873
H       1.523351    2.305501    0.999231
H       2.082151    1.337523   -0.375793
