17

C       0.023186    1.508187   -0.137654
C       0.066895   -0.016176   -0.027142
C       0.745172   -0.529675    1.260402
O       2.114858   -0.146325    1.339553
C       0.029738   -0.039612    2.458921
N      -0.495073    0.390640    3.394495
C       0.673592   -2.089259    1.281078
N       1.828461   -2.689415    1.638677
O      -0.359050   -2.658650    1.000601
H       1.029325    1.942246   -0.149478
H      -0.464524    1.804401   -1.070007
H      -0.536241    1.955661    0.689809
H      -0.936642   -0.446564   -0.059065
H       0.629470   -0.443705   -0.864107
H       2.164510    0.797293    1.525727
H       2.652349   -2.142410    1.819971
H       1.860252   -3.694837    1.666780
