18

O      -0.013930    0.080948    0.334701
C      -0.004327    1.280335    0.215325
O       1.058030    2.014460   -0.192783
C       2.249046    1.282716   -0.417838
C       3.467014    2.114720   -0.642829
C       3.306382    1.323342    0.642427
N      -1.061792    2.124742    0.529674
C      -1.685929    3.012924   -0.435768
C      -2.411339    1.818904    0.108141
H       2.090797    0.369135   -0.977305
H       4.185899    1.782024   -1.382770
H       3.342984    3.189628   -0.579058
H       3.077932    1.884751    1.540965
H       3.909123    0.435912    0.797790
H      -1.921020    4.009791   -0.074611
H      -1.334317    2.966342   -1.462692
H      -2.543762    0.960995   -0.545145
H      -3.179229    1.947590    0.864947
