23

C       0.136112    1.385404    0.297233
C      -0.108919   -0.103210    0.016781
C       0.610823   -0.580539   -1.229851
C       2.019883   -1.139283   -1.224342
C       2.804545   -1.357519    0.061183
C       2.273124   -2.443695    0.956036
C       1.239424   -3.229446    0.663621
C       0.441484   -3.157033   -0.609078
C       0.845625   -2.039276   -1.558795
H       1.200330    1.589768    0.455015
H      -0.195234    2.005574   -0.543413
H      -0.405694    1.716877    1.188833
H       0.192938   -0.695280    0.885675
H      -1.187583   -0.271374   -0.106229
H       0.385479    0.036118   -2.098840
H       2.640489   -0.834743   -2.061931
H       3.842668   -1.606781   -0.201181
H       2.879561   -0.420648    0.633286
H       2.797455   -2.579503    1.899483
H       0.933569   -3.995942    1.372400
H       0.544955   -4.117369   -1.134015
H      -0.628866   -3.086416   -0.364029
H       0.727089   -2.299105   -2.606680
