21

C       0.044147    1.536785   -0.073286
C      -0.016796    0.014586    0.024708
C      -1.467819   -0.485112   -0.009589
O       0.724684   -0.509511   -1.091772
C       1.246737   -1.794125   -0.751959
C       1.507246   -1.740840    0.739727
C       2.223364   -0.497048    1.229183
C       0.718230   -0.567276    1.244075
O       0.032708   -0.648105    2.455811
H       1.079123    1.887322   -0.060038
H      -0.422832    1.879288   -1.001156
H      -0.492794    1.995624    0.763942
H      -1.948391   -0.155754   -0.935033
H      -1.509180   -1.577246    0.033847
H      -2.034711   -0.101243    0.842026
H       0.532461   -2.597352   -0.990432
H       2.145090   -1.945762   -1.360109
H       1.574358   -2.655582    1.315782
H       2.708474   -0.574982    2.196019
H       2.725564    0.135210    0.503961
H       0.110211    0.204010    2.898402
