21

C       0.354765    1.142798    0.347908
O      -0.169996   -0.050946   -0.201396
C       0.523760   -0.544734   -1.314577
C       0.332218    0.248839   -2.588764
C       1.833034   -1.248228   -1.041018
C       0.583492   -2.048799   -1.382076
C      -0.094735   -2.909224   -0.333183
C       0.664469   -4.191682   -0.074077
O       0.181239   -5.294848   -0.079601
H       1.417678    1.037287    0.606825
H       0.245756    1.997173   -0.333850
H      -0.215584    1.348233    1.256749
H       0.759099    1.254134   -2.507650
H       0.821707   -0.248602   -3.430515
H      -0.733709    0.347440   -2.818373
H       2.632636   -1.187077   -1.771357
H       2.167232   -1.271734   -0.008688
H       0.552606   -2.462563   -2.386740
H      -0.141864   -2.343616    0.606041
H      -1.119749   -3.163655   -0.618902
H       1.750903   -4.044129    0.129952
