22

C      -0.548214    1.068684    1.154410
C      -1.139350   -0.069316    0.311739
C      -2.581075    0.250557   -0.117325
O      -3.453712    0.513084    0.972597
C      -0.282758   -0.360154   -0.908155
C       0.975568   -1.190808   -0.810244
C      -0.208217   -1.711889   -1.589466
C      -0.974983   -2.929021   -1.117289
H       0.436490    0.798998    1.547436
H      -0.429329    1.975498    0.549181
H      -1.209303    1.311105    1.990050
H      -1.178003   -0.972913    0.937749
H      -2.589183    1.163876   -0.724636
H      -2.968977   -0.562553   -0.749519
H      -3.527708   -0.296090    1.488681
H      -0.218831    0.490006   -1.585960
H       1.863991   -0.869425   -1.343058
H       1.182757   -1.663153    0.146249
H      -0.106396   -1.663027   -2.671025
H      -1.032040   -2.981149   -0.025997
H      -1.999740   -2.937322   -1.506212
H      -0.485832   -3.848182   -1.458783
