19

C      -0.137446    1.581603    0.061019
C       0.135486    0.117947   -0.022404
O      -0.764171   -0.807411    0.645590
C       0.624483   -0.902789    0.944082
C       1.257198   -1.802910   -0.142990
C       2.788991   -1.786208   -0.134178
C       0.684453   -3.209729   -0.279458
C       0.733484   -0.720712   -1.152549
O       0.901906   -0.544954   -2.323507
H       0.742366    2.153456   -0.249089
H      -0.965916    1.855442   -0.599967
H      -0.403614    1.864152    1.082866
H       0.938598   -0.752114    1.971340
H       3.175063   -2.409204    0.679788
H       3.176495   -2.178603   -1.078727
H       3.186418   -0.773743   -0.004146
H      -0.404421   -3.194760   -0.195943
H       0.949778   -3.632655   -1.253834
H       1.086250   -3.873166    0.494783
