24

C       0.235557    1.207193   -0.517398
C       0.127186   -0.130361    0.217123
C       0.460497    0.003369    1.704192
O      -1.211980   -0.610417    0.092392
C      -1.457552   -1.863744   -0.560738
C      -0.781484   -3.024842    0.188139
C      -2.980867   -2.013437   -0.487394
C      -1.006264   -1.824232   -2.030720
H       1.239115    1.633088   -0.413635
H       0.020656    1.084867   -1.582464
H      -0.486310    1.919784   -0.105484
H       0.831804   -0.838379   -0.237891
H       0.404074   -0.967179    2.204555
H       1.468029    0.408088    1.846904
H      -0.253973    0.676691    2.188671
H      -1.108420   -3.043615    1.231909
H      -1.045729   -3.982653   -0.271525
H       0.309755   -2.944334    0.170545
H      -3.466711   -1.176071   -0.995707
H      -3.305145   -2.945727   -0.959254
H      -3.309588   -2.015837    0.555461
H       0.077279   -1.702441   -2.124025
H      -1.275187   -2.755661   -2.539277
H      -1.492052   -0.995303   -2.553766
