14

C      -0.015892    1.486637   -0.008742
C       1.531177    1.499250    0.039268
O       2.005602    1.631531    1.369350
C       1.408324    0.558402    2.107585
C       0.947149   -0.445380    1.060458
C       1.441491   -0.016717   -0.256987
N      -0.042512   -0.019210    0.022870
H      -0.544755    1.991887    0.806165
H      -0.423054    1.813803   -0.968549
H       2.090043    2.175028   -0.606214
H       2.161219    0.122368    2.773827
H       0.579508    0.929392    2.725972
H       0.862478   -1.493923    1.321126
H       1.916891   -0.619533   -1.020277
