14

N      -0.225943    1.357263    0.064017
C      -0.366320    0.163733   -0.299686
O      -0.187056   -0.834143    0.620916
C      -0.575997   -2.083492    0.269860
C      -1.706291   -2.563855   -0.287319
N      -1.534052   -3.951714   -0.377261
C      -0.307468   -4.353625    0.130282
O       0.153876   -5.472108    0.209455
N       0.275962   -3.146608    0.525367
H      -0.355252    1.983765   -0.727727
H      -0.616794   -0.229125   -1.291508
H      -2.608709   -2.062695   -0.586594
H      -2.193689   -4.610866   -0.749730
H       1.188564   -3.083640    0.941632
