19

O      -0.112283    1.483338    0.129508
C       0.043441    0.075173    0.077785
C       0.621175   -0.562368    1.354316
C       0.116783   -2.004921    1.267002
C      -1.367068   -1.828649    0.836699
O      -2.164823   -1.460014    1.969832
C      -1.344727   -0.579241   -0.090898
C      -1.913670   -3.031035    0.203921
C      -2.355620   -4.039566   -0.279636
H       0.763334    1.877317    0.194994
H       0.682274   -0.201252   -0.776526
H       1.710518   -0.484400    1.421835
H       0.180283   -0.062191    2.222491
H       0.658891   -2.560802    0.493592
H       0.195449   -2.570406    2.199734
H      -2.264877   -2.244706    2.520682
H      -2.116848    0.113480    0.249455
H      -1.553904   -0.843575   -1.127916
H      -2.753920   -4.921068   -0.718220
