19

C      -0.538263    1.176192   -0.389258
C      -0.127220   -0.232473   -0.809882
C       1.368581   -0.382427   -1.053140
O       2.137412    0.541199   -0.916477
C       1.867726   -1.761351   -1.496793
C       1.426145   -2.111588   -2.906412
C       1.329206   -3.525158   -3.342770
N       0.107613   -2.715128   -3.170405
H      -0.028705    1.473685    0.530696
H      -0.269897    1.905245   -1.157890
H      -1.617543    1.230451   -0.222178
H      -0.416559   -0.972930   -0.050077
H      -0.649194   -0.543755   -1.724717
H       2.960322   -1.739802   -1.439714
H       1.501330   -2.530312   -0.803349
H       1.707660   -1.372917   -3.654826
H       1.558507   -3.797967   -4.368684
H       1.547587   -4.297663   -2.609537
H      -0.338251   -2.966113   -2.290556
