18

C       0.111136    1.542096   -0.108903
C       0.089179    0.087985   -0.048849
C       0.060985   -1.115401   -0.001758
C       0.035009   -2.574075    0.055848
C       0.931614   -3.194243   -1.011370
C       0.161582   -3.171800    1.491838
C      -1.303952   -3.597359    1.300450
O      -1.327893   -3.095161   -0.050621
H       0.794241    1.899912   -0.887069
H      -0.884576    1.940266   -0.333372
H       0.434185    1.976649    0.843587
H       1.967411   -2.866469   -0.879033
H       0.889819   -4.285226   -0.946716
H       0.596183   -2.888877   -2.006205
H       0.879164   -3.991201    1.562305
H       0.353491   -2.446433    2.281606
H      -1.507482   -4.673825    1.339157
H      -2.026461   -3.077465    1.941669
