12

O      -0.223486    1.411212    0.025459
C      -0.080953    0.027186    0.053053
C      -0.449286   -0.804998    1.247718
N      -1.565622   -0.227216    1.998082
C      -2.388711   -0.173109    0.851131
O      -3.498035    0.239202    0.688454
C      -1.322651   -0.835840   -0.015748
H       0.562489    1.804142    0.420779
H       0.747994   -0.366508   -0.539035
H       0.153187   -1.596740    1.674687
H      -1.453801    0.583386    2.597320
H      -1.465335   -1.606278   -0.760021
