15

C      -0.016355    1.421965   -0.011726
C       0.004654   -0.069276    0.015057
N      -0.050168   -0.783826   -1.114828
N      -0.005718   -2.055291   -0.624147
C      -0.014578   -3.364302   -1.074678
C       0.058789   -4.139625    0.043030
N       0.111725   -3.309297    1.163613
C       0.070607   -2.016809    0.730445
N       0.080504   -0.778155    1.189368
H       0.887217    1.830009    0.452214
H      -0.079167    1.776785   -1.041634
H      -0.872281    1.807023    0.551580
H      -0.070154   -3.629060   -2.115120
H       0.078023   -5.211156    0.138099
H       0.169944   -3.603433    2.121489
