20

C      -0.491179    1.637209    0.443816
C      -0.166790    0.148492    0.379119
C       0.591441   -0.498996   -0.813061
N       1.518200   -1.257295    0.108816
C       2.305824   -0.261159    0.861375
C       2.937415    0.980060    0.256370
C       4.130250    0.614453   -0.607748
O       4.307095    1.016592   -1.727846
C       0.902766   -0.478477    1.276964
H       0.385971    2.271984    0.297771
H      -1.225621    1.904030   -0.323911
H      -0.924743    1.894237    1.416659
H      -1.095369   -0.410856    0.531298
H      -0.006225   -1.206312   -1.390092
H       1.101953    0.170999   -1.511337
H       3.010067   -0.791478    1.503685
H       2.259649    1.587103   -0.341296
H       3.306594    1.607264    1.081107
H       4.859261   -0.074972   -0.121908
H       0.682867   -0.969048    2.221986
