20

C       0.088413    1.526955   -0.137815
C       0.061721    0.013813    0.110877
O       0.616073   -0.313097    1.375439
C      -1.350760   -0.576481    0.019814
O      -2.121018   -0.111579    1.129560
C      -2.144782   -0.555371   -1.315996
N      -2.391478   -2.041157   -1.264347
C      -1.052861   -2.654976   -1.318857
C      -1.500741   -2.095500   -0.031135
H       1.110469    1.898498   -0.032582
H      -0.270572    1.780201   -1.141411
H      -0.529112    2.059092    0.595171
H       0.698502   -0.476410   -0.634069
H      -0.092368   -0.156625    2.014192
H      -2.375186    0.802216    0.959982
H      -3.088691   -0.012067   -1.230877
H      -1.611971   -0.228568   -2.216001
H      -1.086416   -3.734592   -1.427568
H      -0.268171   -2.170049   -1.896101
H      -1.750966   -2.702544    0.831580
