14

O      -0.438976    0.210493    0.256683
C      -0.143041    1.308613   -0.073584
O      -0.885050    2.198296   -0.826713
C       0.175515    3.199478   -0.795336
C      -0.005109    4.189392    0.372384
C       0.912609    3.278014    1.266864
C       0.385946    2.800253    2.533952
N      -0.043140    2.438917    3.544475
C       1.045440    2.261570    0.075972
H       0.424178    3.550895   -1.794133
H       0.422432    5.178496    0.202863
H      -1.038224    4.288239    0.705433
H       1.876020    3.759105    1.449600
H       2.034952    1.878806   -0.160886
