17

O       0.049535    1.455211   -0.089231
C      -0.048588    0.072779    0.000047
C      -0.438886   -0.657747    1.260247
C      -1.197182    0.161028    2.284729
O      -2.240735    0.828699    1.565231
C      -2.599954    0.058685    0.436213
C      -3.080200    0.981805   -0.676292
O      -2.769685    2.140284   -0.775063
C      -1.342038   -0.711760    0.029291
H      -0.803734    1.865361    0.111660
H       0.748782   -0.391134   -0.573507
H       0.121893   -1.522331    1.597101
H      -1.617430   -0.486091    3.068062
H      -0.594499    0.941916    2.758681
H      -3.409603   -0.656050    0.666106
H      -3.727608    0.486840   -1.433135
H      -1.460166   -1.606218   -0.571280
