18

C      -0.074193    1.383870    0.015673
O       0.037728   -0.021946   -0.024020
C       0.658300   -0.559234    1.112051
C       0.608821   -2.090746    1.001640
C       1.425445   -2.758020    2.141674
C       1.533353   -4.202640    2.000504
C       1.619682   -5.392360    1.861895
C      -0.780098   -2.559827    1.003411
N      -1.875620   -2.924865    1.034050
H       0.912742    1.869423    0.066476
H      -0.574802    1.693060   -0.903968
H      -0.670688    1.717908    0.877932
H       1.712595   -0.240177    1.177643
H       0.153635   -0.231492    2.035979
H       1.054485   -2.369644    0.040618
H       2.426753   -2.310423    2.143724
H       0.967124   -2.508442    3.106111
H       1.688155   -6.446197    1.749530
