18

C      -0.116373    1.546378    0.102712
C       0.016665    0.034718   -0.004301
C       0.754783   -0.590753    1.174893
O      -1.344693   -0.472137   -0.069895
C      -1.533540   -1.673946   -0.613685
N      -0.565331   -2.428643   -1.088037
O      -1.206292   -3.575590   -1.572133
C      -2.524654   -3.456511   -1.362378
C      -2.817872   -2.281961   -0.757989
H       0.874186    2.009135    0.134205
H      -0.661394    1.950124   -0.754462
H      -0.654596    1.821298    1.015295
H       0.515646   -0.238941   -0.939950
H       0.244662   -0.354006    2.114065
H       0.814519   -1.675005    1.063425
H       1.774181   -0.195678    1.227181
H      -3.128471   -4.286062   -1.697661
H      -3.773723   -1.888401   -0.458961
