14

C       0.022796    1.578013    0.015589
C       0.014160    0.038547   -0.022846
C      -1.431846   -0.536136    0.029866
C      -2.135111   -0.168404    1.256418
N      -2.674130    0.129652    2.234274
C       0.690293   -0.474695   -1.211506
C       1.225829   -0.891849   -2.203190
H       1.048942    1.952163    0.006058
H      -0.496602    1.988836   -0.855391
H      -0.472552    1.938515    0.921128
H       0.543504   -0.331936    0.864186
H      -2.002092   -0.172755   -0.831869
H      -1.399017   -1.627310   -0.045125
H       1.713718   -1.260690   -3.071570
