21

C       0.082533    1.576599    0.012455
C       0.166376    0.048332    0.018706
C       0.669716   -0.525413   -1.312579
C       0.755136   -2.047403   -1.311797
C       1.355526   -2.815559   -2.538219
C       2.089546   -3.800530   -1.558465
O       3.390595   -4.239951   -1.797858
C       1.889959   -2.703715   -0.512134
O       2.624464   -2.318079    0.358227
H       1.064648    2.025798   -0.172038
H      -0.596764    1.934821   -0.769445
H      -0.281965    1.958638    0.970904
H       0.833688   -0.285797    0.820669
H      -0.823317   -0.372663    0.241641
H       0.010956   -0.203617   -2.130067
H       1.662757   -0.113119   -1.534790
H      -0.208464   -2.489870   -1.030218
H       0.652003   -3.263976   -3.239790
H       2.080595   -2.200265   -3.077151
H       1.439402   -4.663267   -1.361832
H       3.976806   -3.694609   -1.257922
