18

O      -0.185556   -0.000790   -0.152052
C      -0.102872    1.171253    0.143304
C       1.210839    1.937656    0.178211
C       2.415726    1.029492   -0.116209
C       3.674225    1.764441   -0.115429
C       4.698660    2.393287   -0.110173
N      -1.205633    1.912961    0.567117
C      -1.764344    3.059025   -0.129799
C      -2.515916    1.764891   -0.018283
H       1.166562    2.754924   -0.551947
H       1.313967    2.420035    1.155791
H       2.448860    0.222736    0.624309
H       2.265969    0.533806   -1.081362
H       5.613097    2.932579   -0.108443
H      -2.037707    3.908795    0.489541
H      -1.350401    3.314685   -1.102620
H      -2.590930    1.139151   -0.903428
H      -3.341944    1.680528    0.681630
