18

C      -0.101166    1.642258   -0.028561
C       1.378673    1.259164   -0.042129
N       1.156437    0.152209    1.016343
C      -0.068829    0.114258    0.027713
C       1.163598   -0.028663   -0.936567
C       1.817194   -0.321555   -2.248585
C       3.035055   -0.805629   -1.947168
C       3.303998   -0.921047   -0.432286
C       1.857623   -0.872462    0.088753
H      -0.454527    2.144554    0.875609
H      -0.511929    2.095036   -0.933974
H       2.257290    1.904535    0.001459
H      -0.871562   -0.608239    0.185960
H       1.452985   -0.104472   -3.244988
H       3.799184   -1.045509   -2.679344
H       3.851655   -1.828789   -0.162865
H       3.911688   -0.069897   -0.097410
H       1.452776   -1.878201    0.248833
