15

C      -0.209904    1.408858   -0.143861
C       0.350215    0.032729    0.222221
N       1.037039   -0.613374   -0.889688
C       0.481971   -1.628617   -1.601802
O      -0.603125   -2.133502   -1.382427
C       1.324988   -2.103356   -2.700279
C       1.960200   -2.550012   -3.626657
C       2.689965   -3.042515   -4.669945
N       3.317017   -3.455625   -5.556031
H       0.584202    2.089990   -0.467219
H      -0.941563    1.326018   -0.952162
H      -0.703925    1.856427    0.723834
H       1.050511    0.113175    1.060904
H      -0.453229   -0.643522    0.520047
H       1.927869   -0.251990   -1.193740
