18

C      -0.461071    1.376035   -0.033337
C      -0.083871   -0.097729    0.031312
C       0.899323   -0.500838   -1.068084
C       1.021574   -2.002246   -1.320260
O       1.406902   -2.424498   -2.382745
C       0.614700   -2.953832   -0.191362
N       1.048416   -2.622836    1.153167
C       0.965744   -1.499929    1.720582
O       0.490294   -0.289540    1.340516
H       0.433790    2.003433    0.019393
H      -0.984784    1.593080   -0.968408
H      -1.115127    1.636891    0.802208
H      -0.996516   -0.704187   -0.034881
H       0.624487   -0.040299   -2.021759
H       1.893126   -0.111832   -0.809157
H      -0.481478   -3.051393   -0.227678
H       1.013799   -3.936237   -0.455946
H       1.338637   -1.402355    2.740554
