20

C      -0.150813    1.535957    0.024729
C       0.108958    0.025235    0.054468
C       0.720202   -0.525259   -1.206482
C       1.724104   -1.599245   -1.209554
N       2.190060   -0.219290   -1.571788
C       1.752734   -0.056728   -2.948390
O       2.397694    0.202859   -3.915902
C       0.252758   -0.227044   -2.643701
C      -0.587778   -1.220800   -3.436828
H       0.770182    2.081748   -0.200753
H      -0.900090    1.806999   -0.725730
H      -0.520911    1.880063    0.994609
H       0.778367   -0.213271    0.889023
H      -0.828230   -0.512824    0.251573
H       2.125858   -1.925458   -0.255407
H       1.732169   -2.364594   -1.981368
H      -0.202460    0.768720   -2.694084
H      -0.183677   -2.235621   -3.380586
H      -1.618203   -1.246385   -3.068367
H      -0.613228   -0.930281   -4.491353
