21

C      -0.210602    1.528664    0.029736
C       0.037727    0.021049   -0.050733
O       0.794516   -0.321329   -1.204832
C       0.732671   -0.523895    1.206063
C       0.805344   -2.053870    1.233771
C       1.819501   -2.521883    2.242236
C       2.726200   -1.696155    2.757638
C       2.823814   -0.259474    2.328688
O       2.047793    0.034008    1.181485
H       0.729193    2.059384    0.207603
H      -0.642369    1.884319   -0.909080
H      -0.900840    1.772138    0.844996
H      -0.921024   -0.500729   -0.160354
H       1.703595   -0.064022   -1.004420
H       0.201887   -0.166686    2.103973
H      -0.185251   -2.459745    1.476725
H       1.052355   -2.418178    0.228388
H       1.785218   -3.563808    2.549227
H       3.435859   -2.027546    3.510797
H       2.538357    0.406938    3.163444
H       3.858175   -0.005875    2.065812
