20

C      -0.108430    1.506039   -0.087996
C      -0.035922    0.009166   -0.039809
C       0.839074   -0.957834   -0.887075
C       1.975147   -0.960873    0.192798
C       0.664598   -0.906255    1.017013
C      -0.147737   -0.848057    2.288269
C      -1.558677   -0.848171    1.542967
N      -1.258726   -0.882568    0.069403
C      -0.082147   -1.818913    0.007341
H       0.896396    1.940993   -0.115508
H      -0.648309    1.837323   -0.980888
H      -0.626604    1.911147    0.788268
H       0.939346   -0.991526   -1.972348
H       2.571240   -1.874988    0.269941
H       2.624562   -0.080889    0.227180
H      -0.024355   -1.713974    2.944286
H       0.009548    0.059279    2.878748
H      -2.155381   -1.725705    1.806796
H      -2.147515    0.042865    1.776240
H      -0.182172   -2.905453    0.045473
