20

C       0.071945    1.452067    0.062381
N      -0.079433    0.011480    0.122568
C      -1.248954   -0.621331   -0.184538
O      -2.264749   -0.025110   -0.499897
C      -1.181093   -2.146459   -0.126539
C      -2.564657   -2.762465    0.147976
C      -2.551970   -4.219388    0.088919
C      -2.517676   -5.421947    0.034205
C      -2.495204   -6.876651   -0.030369
H       0.364985    1.863050    1.034838
H       0.820423    1.746892   -0.682022
H      -0.895704    1.866292   -0.222700
H       0.716749   -0.548791    0.377172
H      -0.811655   -2.505310   -1.095038
H      -0.456959   -2.478922    0.625249
H      -2.919909   -2.428968    1.130939
H      -3.271729   -2.346667   -0.577128
H      -2.826180   -7.323668    0.913798
H      -3.153943   -7.251887   -0.821590
H      -1.486498   -7.252220   -0.236330
