20

C      -0.051578    1.548475    0.020993
C      -0.056233    0.026385   -0.071270
N       0.808897   -0.432546   -1.147596
C       0.864284   -1.808776   -1.389248
C       0.422077   -2.851700   -0.596547
N       0.771171   -3.994204   -1.255561
N       1.397315   -3.763446   -2.418937
C       1.465226   -2.436521   -2.515997
C       2.107940   -1.769215   -3.688532
H       0.964154    1.924366    0.174016
H      -0.446624    2.000681   -0.896357
H      -0.677436    1.886952    0.851395
H       0.322126   -0.400342    0.866749
H      -1.091621   -0.342628   -0.185787
H       0.667948    0.097302   -1.998788
H      -0.089385   -2.873546    0.351091
H       0.618824   -4.942479   -0.961996
H       1.389511   -1.174110   -4.267718
H       2.908264   -1.089724   -3.372745
H       2.534027   -2.521547   -4.355501
