15

C      -0.020691    1.466461    0.113788
C       1.283175    0.729556    0.022717
O       2.027155    0.438410    1.207013
C       1.218332   -0.398830    1.925454
C       0.081964   -0.748183    1.280312
O      -0.673112   -1.572660    2.048405
C       0.040375   -1.741280    3.205358
C       1.212322   -1.032419    3.199583
C      -0.043295   -0.057152   -0.009628
H      -0.320642    1.901564    1.060144
H      -0.292897    2.040374   -0.765963
H       1.930015    0.855251   -0.835885
H      -0.404568   -2.405353    3.927335
H       1.945246   -0.999199    3.988860
H      -0.426006   -0.536745   -0.903232
