19

O      -0.152678    1.487722   -0.051516
C      -0.017981    0.080139   -0.155105
C      -1.375860   -0.536082    0.177993
C      -1.361130   -2.036990    0.117055
C      -1.557699   -2.829645   -1.126657
C      -2.582263   -2.998768   -0.006614
C      -1.991874   -3.839482    1.080210
O      -2.413777   -4.732601    1.758969
C      -0.717994   -2.956064    1.177688
H       0.699684    1.888681   -0.244420
H       0.285666   -0.223311   -1.169788
H       0.744873   -0.302786    0.542043
H      -1.671862   -0.198873    1.178665
H      -2.117864   -0.137924   -0.523740
H      -1.947092   -2.290051   -1.984962
H      -0.890873   -3.648581   -1.383127
H      -3.632218   -2.789060   -0.172297
H       0.245014   -3.411856    0.928929
H      -0.656931   -2.507718    2.174443
