22

C      -0.058251    1.477319    0.087997
C       0.016988   -0.047830   -0.016015
C       0.730404   -0.509292   -1.278802
O       0.756917   -1.922962   -1.297634
C       1.396900   -2.456604   -2.429552
C       1.357493   -3.976689   -2.325370
C       2.041402   -4.642180   -3.534175
C       2.017960   -6.101024   -3.459508
N       1.993269   -7.254092   -3.389413
H       0.940697    1.926985    0.105315
H      -0.601524    1.909891   -0.759430
H      -0.574406    1.782635    1.002492
H       0.542282   -0.463292    0.851482
H      -0.989995   -0.480272   -0.007968
H       0.212324   -0.126114   -2.175485
H       1.758962   -0.108696   -1.308096
H       0.894612   -2.122879   -3.355419
H       2.442230   -2.103656   -2.489481
H       1.852028   -4.287590   -1.400286
H       0.316464   -4.306556   -2.258629
H       1.551683   -4.337050   -4.466714
H       3.086270   -4.317828   -3.609079
