18

C       0.015262    1.500367   -0.060394
C      -0.007636    0.009779    0.048170
N      -0.029136   -0.758008   -1.050489
N      -0.038166   -2.040821   -0.607509
C      -0.029621   -2.104928    0.742880
C      -0.003108   -0.813205    1.196191
N      -0.023054   -0.713420    2.614591
C      -0.250986   -2.120252    3.064868
C       0.027352   -3.097064    1.861107
H       0.962855    1.920041    0.298069
H      -0.115057    1.799126   -1.102661
H      -0.783245    1.952462    0.537818
H      -0.105121   -2.781279   -1.283448
H       0.855971   -0.357337    2.977749
H       0.358377   -2.347785    3.942724
H      -1.302268   -2.216793    3.356582
H      -0.728875   -3.886721    1.819704
H       1.007879   -3.588556    1.929154
