18

C      -0.128190    1.599251    0.024777
C       0.011751    0.060760    0.013082
C       0.821312   -0.463649   -1.176390
C       1.802893   -1.282329   -0.797099
C       1.885937   -1.411572    0.685289
C       2.230818   -0.119776    1.402677
C       0.788335   -0.512019    1.219542
C      -1.338716   -0.530512   -0.022215
N      -2.399768   -0.989216   -0.048081
H       0.860491    2.062117    0.056153
H      -0.647367    1.948162   -0.872135
H      -0.697859    1.928464    0.897781
H       0.589324   -0.159456   -2.189766
H       2.499294   -1.769632   -1.469897
H       2.137819   -2.361178    1.142604
H       2.619972   -0.191688    2.412960
H       2.652438    0.685737    0.811570
H       0.217018   -0.784277    2.097761
