13

C      -0.140174    1.739031   -0.137041
C      -0.043971    0.193803   -0.099739
C       0.460505   -0.212028    1.312821
O       1.436634   -0.865622    1.528483
C      -1.455464   -0.430046   -0.226933
O      -2.407690    0.045583    0.326394
C       0.832226   -0.332407   -1.141579
N       1.484816   -0.750122   -1.997822
H       0.834004    2.188618    0.066319
H      -0.481743    2.069845   -1.120001
H      -0.863174    2.068886    0.610966
H      -0.195357    0.188612    2.112920
H      -1.508776   -1.360330   -0.825119
