19

C       0.034454    1.579007    0.397896
C      -0.014279    0.110502   -0.032993
O       0.833187   -0.690654    0.773231
C      -1.444608   -0.438253   -0.004331
C      -1.669877   -1.860781    0.322163
O      -1.896121   -0.842718    1.299807
C      -2.463811    0.253615   -0.881881
C      -3.899962    0.278463   -0.405154
O      -2.104658    0.773091   -1.915771
H       1.073640    1.915188    0.423216
H      -0.522244    2.212717   -0.296658
H      -0.391594    1.700322    1.400793
H       0.360460    0.015669   -1.055947
H       0.455395   -0.676948    1.662211
H      -2.563717   -2.367673   -0.036126
H      -0.794488   -2.481199    0.490763
H      -3.967924    0.885031    0.504532
H      -4.529208    0.707437   -1.185453
H      -4.257973   -0.718979   -0.134819
