17

O       0.021200    1.395083   -0.312652
C       0.070051   -0.015804   -0.296161
C      -1.315069   -0.602112   -0.068835
O      -2.126158   -0.280159   -1.197344
C      -3.168551   -1.215742   -1.176552
O      -2.594330   -2.448721   -0.783201
C      -1.453855   -2.157187    0.013244
C      -0.260102   -2.929925   -0.535532
O       0.765189   -3.081401    0.075263
H      -0.597659    1.646258   -1.007581
H       0.485724   -0.420906   -1.231159
H       0.736970   -0.310236    0.518681
H      -1.747701   -0.152940    0.837184
H      -3.952686   -0.917050   -0.458911
H      -3.587644   -1.314438   -2.181311
H      -1.605300   -2.467053    1.054500
H      -0.424478   -3.347180   -1.552937
