13

O      -0.011135   -0.037773    0.210582
C      -0.034783    1.164548    0.095234
N      -1.178361    1.905071    0.016861
C      -1.183136    3.344722   -0.170349
C       0.000081    3.915010    0.587445
O       1.227620    3.322503    0.144673
C       1.288362    1.973919   -0.008377
O       2.326186    1.438373   -0.251432
H      -2.037280    1.376693   -0.040252
H      -1.122580    3.620898   -1.232576
H      -2.111692    3.760565    0.232190
H       0.108107    4.986347    0.408922
H      -0.119505    3.744559    1.664219
