19

C       0.202556    1.756286    0.085654
C       0.075530    0.249942    0.173823
O       0.877307   -0.464187   -0.818960
C       1.441046   -1.291305    0.187325
C       2.247123   -0.521628    1.156032
C       0.730227   -0.530578    1.322947
C       0.104241   -1.117118    2.530884
C      -1.370580   -0.830829    2.754370
O       0.741511   -1.810681    3.298420
H       1.228221    2.086134    0.268496
H      -0.097574    2.100404   -0.908905
H      -0.453549    2.232775    0.822100
H      -0.971489   -0.052324    0.045335
H       1.503546   -2.358270    0.006603
H       2.737883   -1.102877    1.929176
H       2.753416    0.382595    0.833673
H      -1.972704   -1.284220    1.958750
H      -1.675907   -1.244091    3.716017
H      -1.568802    0.246683    2.731908
