17

O      -0.056840    1.531071   -0.149205
C       0.034585    0.152017   -0.073677
C       0.085441   -0.530403    1.333417
N      -1.358568   -0.069373    1.469974
C      -1.275510   -0.689140    0.082400
C      -0.427984   -1.848366    0.683287
N       0.414967   -2.687715   -0.127403
C       0.447108   -4.046051    0.011582
O      -0.207234   -4.684285    0.806300
H      -0.706957    1.775335    0.527065
H       0.759782   -0.172636   -0.821369
H       0.810623   -0.395791    2.137123
H      -1.870595   -0.687646    2.105440
H      -2.142588   -0.740211   -0.577543
H      -0.976407   -2.500711    1.362758
H       1.011036   -2.279699   -0.828798
H       1.156038   -4.511973   -0.700718
