19

C       0.793557    1.300701   -0.203889
C      -0.117945    0.115108    0.101744
O      -0.147695   -0.846556   -0.961814
C       0.899028   -1.799568   -0.781758
C       1.346969   -1.660237    0.661670
C       2.213945   -2.569136    1.404172
O       2.719797   -1.310634    0.919238
C       0.338198   -0.720902    1.324450
O       0.880162   -0.016571    2.408702
H       1.833432    0.986008   -0.340169
H       0.463083    1.796833   -1.120079
H       0.761256    2.020563    0.618726
H      -1.148612    0.462241    0.220637
H       0.494014   -2.793433   -1.003112
H       1.745764   -1.610497   -1.455640
H       2.113130   -2.637738    2.486148
H       2.630893   -3.447739    0.914636
H      -0.517846   -1.299180    1.691780
H       1.831141    0.045236    2.234526
