20

N       0.210897   -1.225265   -0.363292
C       0.190511   -0.118605   -0.031959
C       0.186727    1.282431    0.375982
C       1.462594    2.015358   -0.057864
O       1.337176    3.343334    0.390153
C       2.449887    4.151087    0.088840
C       2.640870    4.668625   -1.365465
C       3.014170    6.049102   -0.755944
C       2.326518    5.609311    0.566840
H      -0.683979    1.785105   -0.057734
H       0.085719    1.345065    1.464436
H       2.346690    1.528662    0.383302
H       1.569637    1.966716   -1.151748
H       3.371179    3.676996    0.461686
H       3.371186    4.169680   -2.006172
H       1.675037    4.705885   -1.878345
H       4.094759    6.163683   -0.637175
H       2.624067    6.938708   -1.252835
H       1.272675    5.900369    0.588042
H       2.792009    5.878460    1.517008
