21

C       0.436687    1.057744    0.247699
C       0.203368   -0.423509   -0.076926
C      -1.259467   -0.845484    0.039496
C      -2.133885   -0.085390   -0.840774
N      -2.805866    0.511025   -1.568974
C      -1.670643   -2.271088    0.337352
C      -0.673314   -3.394320    0.523048
N      -1.908173   -1.215204    1.311295
C      -1.172402   -1.160122    2.566131
H       1.491227    1.315846    0.115447
H      -0.154239    1.702720   -0.408876
H       0.160369    1.288902    1.280923
H       0.529828   -0.630937   -1.102905
H       0.821748   -1.046131    0.572337
H      -2.592205   -2.603012   -0.140143
H       0.269650   -3.078591    0.970367
H      -1.104545   -4.170149    1.164685
H      -0.449389   -3.855216   -0.444226
H      -0.108808   -1.428288    2.513530
H      -1.249706   -0.147580    2.972596
H      -1.656928   -1.841509    3.272161
