22

C      -0.000443    1.547021    0.241498
C      -0.062800    0.036000   -0.008255
C       0.683362   -0.454577   -1.266320
C       0.789626   -1.983314   -1.274535
C       1.795557   -2.521644   -2.280825
O       1.423423   -2.438088   -3.658477
C       1.147969   -1.242494   -4.249427
N       0.615616   -0.177451   -3.841478
C       0.005619    0.065104   -2.546870
H       1.037096    1.897049    0.283092
H      -0.512633    2.120189   -0.536414
H      -0.473349    1.800038    1.195611
H       0.362689   -0.478878    0.862278
H      -1.111843   -0.286494   -0.063173
H       1.704983   -0.045521   -1.233751
H       1.116048   -2.332958   -0.286305
H      -0.193913   -2.435919   -1.459205
H       2.758296   -2.006785   -2.149925
H       1.961757   -3.589888   -2.118341
H       1.436466   -1.311338   -5.300044
H      -1.013475   -0.353038   -2.583673
H      -0.120894    1.148860   -2.467319
