19

C       0.900666    1.131516    0.696927
C      -0.000791    0.167070   -0.053796
O       0.739333   -0.406846   -1.117075
C      -0.005902   -1.321624   -1.885460
C       0.904273   -1.859909   -2.974675
C       1.980264   -2.884532   -2.577247
O       1.337186   -3.899272   -3.420287
C       0.345998   -3.029083   -3.795729
O      -0.581258   -3.240639   -4.508205
H       1.772368    0.608316    1.100050
H       1.253746    1.924250    0.031455
H       0.356973    1.591389    1.527313
H      -0.369915   -0.624904    0.619118
H      -0.886054    0.690786   -0.450998
H      -0.380071   -2.148146   -1.256493
H      -0.884519   -0.838780   -2.342785
H       1.271595   -1.039538   -3.595900
H       2.997188   -2.686659   -2.919170
H       1.977349   -3.193244   -1.529992
