20

C       1.381474    1.434587   -0.201789
C       0.847999    0.024095   -0.085692
C       1.759168   -1.203187    0.110215
C       3.237348   -1.078964    0.260218
N       3.946127   -2.110329   -0.302212
O       3.809042   -0.172990    0.849587
C       0.765426   -0.735356    1.190740
C       1.233093   -0.183488    2.515490
O      -0.400072   -1.516666    1.277223
H       2.279729    1.581038    0.397702
H       1.637838    1.657944   -1.242887
H       0.618733    2.154703    0.113936
H       0.017465   -0.196505   -0.751306
H       1.420320   -2.092218   -0.412370
H       3.519211   -2.753822   -0.945450
H       4.948657   -2.013332   -0.325712
H       2.168929    0.364281    2.414525
H       0.461802    0.467899    2.938834
H       1.407047   -1.003497    3.224068
H      -0.237623   -2.214010    1.922843
