20

C       0.092356    1.525171   -0.206228
C      -0.025340    0.011046    0.008756
C      -1.496925   -0.421501    0.005552
N       0.673675   -0.681033   -1.106880
C       1.593125   -1.374968   -0.582964
O       1.766768   -1.371004    0.758142
C       0.750311   -0.486215    1.259160
C       1.139971    0.311163    2.462767
C       0.182176   -0.861519    2.590573
H       1.138903    1.841194   -0.192604
H      -0.333987    1.792082   -1.176871
H      -0.447136    2.079006    0.569229
H      -1.947040   -0.183773   -0.961939
H      -1.587603   -1.498439    0.170784
H      -2.064660    0.097787    0.784741
H       2.293262   -2.005232   -1.120731
H       2.149849    0.178252    2.834205
H       0.744628    1.315114    2.569278
H      -0.864489   -0.655025    2.784004
H       0.558262   -1.770420    3.046579
