19

C      -0.143348    1.576318    0.108815
C      -0.177485    0.076662    0.250404
O       0.961059   -0.654887   -0.227134
C       0.677422   -0.684381    1.180949
C       1.650695   -0.105482    2.141417
C       1.672426   -0.798819    3.280880
C       0.696473   -1.950920    3.268146
C       0.250259   -2.029999    1.782490
O      -1.137193   -2.248242    1.593983
H       0.830163    1.986915    0.386128
H      -0.349793    1.862746   -0.927899
H      -0.910317    2.035756    0.741648
H      -1.127728   -0.393486   -0.000641
H       2.246697    0.768798    1.913469
H       2.291524   -0.566967    4.140369
H       1.134091   -2.886558    3.634985
H      -0.180525   -1.739326    3.893781
H       0.832679   -2.804316    1.262866
H      -1.318565   -3.179620    1.749953
