23

C      -0.251009    1.774926    0.156341
C      -0.121860    0.269989    0.417351
C      -1.312340   -0.538532   -0.110538
C      -1.514451   -0.482969   -1.650164
C      -2.172446   -1.806967   -1.954995
C      -2.093008   -2.653436   -0.930128
C      -1.336823   -2.061723    0.240900
C       0.038064   -2.724464    0.393538
O      -0.188840   -4.098953    0.680156
H       0.600272    2.323168    0.571801
H      -0.295304    1.994514   -0.915276
H      -1.161971    2.177139    0.614080
H       0.808259   -0.095656   -0.037188
H      -0.021487    0.103347    1.497675
H      -2.220980   -0.115977    0.338064
H      -2.118243    0.377557   -1.959678
H      -0.555655   -0.389243   -2.183517
H      -2.624262   -2.027880   -2.916289
H      -2.455631   -3.673909   -0.920238
H      -1.862548   -2.230452    1.189278
H       0.617780   -2.603955   -0.535401
H       0.603508   -2.244080    1.206344
H       0.664894   -4.534051    0.758148
