15

C      -0.228282    1.345278   -0.161378
N       0.540068    0.128984    0.122463
C       0.843628   -0.692063   -0.944816
C       0.645087   -1.993360   -1.199961
O       0.034385   -2.953535   -0.459709
N       1.292523   -2.273520   -2.424940
C       1.906694   -1.133367   -2.888140
O       2.575932   -0.956193   -3.868243
O       1.595453   -0.140090   -1.970987
H       0.308045    1.935631   -0.906850
H      -1.242288    1.146170   -0.540195
H      -0.301396    1.936398    0.754275
H       0.153444   -0.413192    0.883844
H      -0.820784   -3.172897   -0.852303
H       1.557331   -3.187640   -2.751068
