13

O      -0.006678   -0.068915    0.003905
C      -0.015702    1.148452    0.009943
C      -1.239920    1.954554    0.029860
C      -1.200858    3.294663    0.035792
O      -0.048643    4.007542    0.024101
C       1.117264    3.331838    0.005543
C       1.218909    1.980766   -0.002293
C       2.494218    1.359991   -0.022045
C       3.572175    0.825491   -0.038756
H      -2.191838    1.438478    0.039859
H      -2.062463    3.949790    0.050242
H       1.965978    4.003323   -0.002377
H       4.517605    0.342167   -0.053415
