18

C      -0.019615    1.496451    0.052670
C       1.315690    0.793347   -0.005418
C       0.017957   -0.003536   -0.027030
O      -0.347112   -0.640300    1.167905
C      -0.114011   -2.043386    1.130829
C      -0.985039   -2.713254    0.064795
C      -0.875668   -1.951751   -1.230311
C      -0.388525   -0.711215   -1.260698
H      -0.326973    1.907728    1.007281
H      -0.361384    2.048224   -0.816083
H       1.903103    0.857940   -0.914748
H       1.889105    0.738195    0.912833
H       0.948759   -2.245092    0.925371
H      -0.344816   -2.414113    2.133027
H      -0.664412   -3.754151   -0.071524
H      -2.030162   -2.754193    0.401370
H      -1.192274   -2.441937   -2.146372
H      -0.268487   -0.171434   -2.195926
