23

C       0.040242    1.550252    0.009846
C      -0.051132    0.020337    0.002476
C       0.627275   -0.550958   -1.276820
C       0.813310   -2.076134   -1.281585
C       1.553570   -2.555571   -0.026413
C       0.837064   -2.089652    1.247509
C       0.651288   -0.564553    1.262559
C      -1.517416   -0.393984    0.014250
O      -2.449385    0.371255    0.028109
H       1.087731    1.867713    0.001790
H      -0.458818    1.978479   -0.863655
H      -0.442439    1.969034    0.897012
H       0.066048   -0.229960   -2.162667
H       1.615431   -0.077445   -1.353996
H      -0.159002   -2.580625   -1.346302
H       1.364767   -2.366709   -2.182876
H       1.649214   -3.646841   -0.033152
H       2.575789   -2.151600   -0.033850
H      -0.133948   -2.594838    1.325057
H       1.405304   -2.389880    2.135109
H       1.640832   -0.091899    1.326036
H       0.106992   -0.252998    2.162228
H      -1.704201   -1.490540    0.009176
