14

O       0.099382    1.083237    0.885195
C      -0.058392    0.176782   -0.197789
C      -1.353049   -0.484367   -0.097622
C      -2.411031   -1.055117   -0.036376
C      -3.717057   -1.712404    0.065348
O      -3.655882   -3.031013    0.534254
C      -4.599779   -0.859501    0.986815
O      -5.105590   -1.333436    1.970658
H       0.971788    1.481732    0.802035
H       0.004735    0.695638   -1.168248
H       0.729068   -0.594224   -0.197153
H      -4.196845   -1.693768   -0.929628
H      -4.114514   -3.019503    1.390323
H      -4.726139    0.200301    0.697053
