21

C       0.428438    1.371005   -0.259538
C       0.114157   -0.073018    0.077674
O       0.878391   -1.015027   -0.727381
C       1.440322   -1.659899    0.449102
C       2.958680   -1.601089    0.385144
O       3.419718   -2.205267   -0.807283
C       0.694186   -0.685802    1.355479
C       1.182614    0.007264    2.593384
C       0.011918   -0.947966    2.659346
H       1.489921    1.588081   -0.110654
H       0.173873    1.576814   -1.304034
H      -0.159015    2.048939    0.369838
H      -0.961164   -0.265208   -0.046432
H       1.107817   -2.705297    0.508163
H       3.287034   -0.552279    0.462607
H       3.401662   -2.155444    1.220709
H       2.910475   -1.796534   -1.518590
H       2.127666   -0.309125    3.022778
H       0.984184    1.069283    2.696775
H      -0.979936   -0.531856    2.807576
H       0.163645   -1.914071    3.130684
