19

N      -0.111443    1.272463    0.264235
C       0.083123   -0.071350    0.105314
O       1.189766   -0.575252    0.152398
C      -1.185551   -0.871964   -0.178176
C      -0.980958   -2.362426    0.046656
C      -0.794353   -2.884188    1.521132
C      -2.022567   -3.775054    1.317381
N      -3.149608   -2.857158    1.010431
C      -2.214673   -3.270538   -0.068422
H       0.684470    1.840559    0.504451
H      -1.030243    1.668459    0.356534
H      -2.016186   -0.514076    0.439442
H      -1.469486   -0.683148   -1.223172
H      -0.159991   -2.721786   -0.575835
H       0.139001   -3.434472    1.646867
H      -0.890430   -2.141900    2.317960
H      -2.212785   -4.758000    1.730758
H      -3.985171   -3.433505    0.911476
H      -2.586331   -3.774068   -0.953352
