21

C      -0.493218    1.515871    0.093490
C      -0.044757    0.058007    0.015528
C      -1.222365   -0.841048   -0.375636
C       1.218841   -0.235121   -0.873300
C       1.943491   -0.868091    0.332830
O       2.771116    0.085593    1.034654
C       1.720729    0.409653    1.967924
C       0.721224   -0.523473    1.253283
O      -0.041754   -1.387094    2.034449
H       0.342018    2.196660    0.282099
H      -0.954945    1.822451   -0.851772
H      -1.236507    1.659792    0.886044
H      -1.597004   -0.547702   -1.362691
H      -0.931308   -1.893950   -0.420458
H      -2.042188   -0.757480    0.343679
H       1.018348   -0.925047   -1.697427
H       1.739857    0.643838   -1.259576
H       2.421081   -1.845361    0.225628
H       1.964434    0.064033    2.985257
H       1.502370    1.482339    2.009951
H       0.512003   -1.734909    2.741844
