19

C       0.207258    1.206201   -0.934261
C       0.566122   -0.253637   -0.689233
C       1.885136   -0.888167   -1.260569
C       2.204751   -1.441664    0.138085
C       2.389230   -0.320171    1.156166
C       3.073726    0.970462    0.914124
O       3.582873    1.625810    1.794719
C       0.987028   -0.754452    0.700840
O       0.103573   -1.259554    1.632463
H       1.006147    1.891209   -0.637065
H      -0.000911    1.380874   -1.995329
H      -0.693153    1.483437   -0.374491
H      -0.273945   -0.883678   -1.000604
H       1.687502   -1.676526   -1.989229
H       2.614139   -0.199185   -1.693391
H       2.594542   -2.428789    0.353506
H       2.571274   -0.691769    2.161331
H       3.118208    1.317564   -0.139168
H      -0.209877   -0.536696    2.187605
