18

C      -0.404133    1.391123   -0.181393
N       0.215960    0.083202    0.047391
C       0.854079   -0.487778   -1.072957
C       0.040718   -1.018225   -2.242537
O       0.272931   -0.662166   -3.572586
C       0.920554   -2.007858   -1.598065
C       2.366549   -1.811444   -2.067773
C       2.312046   -0.408165   -1.415959
O       3.169230    0.342231   -1.031022
H       0.296746    2.160146   -0.539032
H      -1.208040    1.289556   -0.917785
H      -0.854476    1.740464    0.751838
H       0.868990    0.141523    0.821720
H      -1.012335   -1.106487   -1.969911
H       0.023010    0.260352   -3.689190
H       0.545053   -2.875108   -1.071826
H       3.097848   -2.447007   -1.562330
H       2.522654   -1.842589   -3.146604
