14

O      -0.224256    1.480914    0.012569
C       0.028410    0.087975    0.003250
C      -1.341825   -0.586143    0.011169
C      -1.268445   -2.067623    0.002740
N      -0.205752   -2.785031   -0.008946
O      -0.681306   -4.123385   -0.012468
C      -2.037535   -4.113826   -0.002356
O      -2.766989   -5.046689   -0.001877
O      -2.421430   -2.781744    0.007504
H       0.619854    1.941406    0.009244
H       0.590305   -0.222995   -0.888785
H       0.605108   -0.232183    0.882483
H      -1.906973   -0.265144    0.894142
H      -1.921645   -0.255929   -0.858793
