22

C      -0.228866    1.610914    0.032705
C       0.009793    0.101426   -0.001641
C      -1.290036   -0.641603    0.333861
C       0.655935   -0.526984   -1.238421
C       2.138452   -0.425419   -1.287397
C       2.898213    0.628013   -0.495230
C       2.418181    0.379445    0.958390
C       1.206565   -0.533453    0.782691
N       1.528561   -1.446951   -0.404549
H       0.667151    2.190711   -0.197599
H      -0.996463    1.887556   -0.699357
H      -0.590730    1.928288    1.017782
H      -2.080767   -0.391599   -0.382935
H      -1.142168   -1.725045    0.311552
H      -1.647151   -0.364889    1.332426
H       0.093416   -0.911768   -2.087167
H       2.607881   -0.842958   -2.173916
H       3.976365    0.471969   -0.595473
H       2.690254    1.642825   -0.846046
H       3.190274   -0.141304    1.533398
H       2.173530    1.300379    1.495322
H       0.933502   -1.094799    1.677811
