17

C      -0.049872    1.463707    0.002227
C      -0.004046    0.010023   -0.011581
C       0.030529   -1.199663   -0.032586
C       0.096888   -2.601339   -0.048442
C       1.207792   -3.443088   -0.016283
N       2.544028   -3.029147   -0.032923
C       0.732938   -4.780619   -0.042801
C      -0.645244   -4.728299   -0.094161
N      -1.025424   -3.423076   -0.103674
H       0.684669    1.894704   -0.688265
H      -1.037198    1.825374   -0.307217
H       0.151610    1.874069    0.999286
H       2.646155   -2.059622    0.240670
H       3.147451   -3.611634    0.532538
H       1.335604   -5.675879   -0.035693
H      -1.374099   -5.522191   -0.126419
H      -1.968724   -3.080648   -0.135585
