16

O      -0.051729    1.302887    0.198067
N       0.014111   -0.075437    0.123064
C      -1.129833   -0.646083    0.034716
C      -1.241104   -2.115701   -0.108305
C      -2.115060   -2.831565    0.910897
C      -2.700123   -2.440953   -0.413606
C      -3.487061   -1.143817   -0.463872
C      -2.517667   -0.036120   -0.017134
O      -2.823487    1.100599    0.233540
H       0.880074    1.548400    0.233254
H      -0.418849   -2.656731   -0.557926
H      -1.895943   -3.880300    1.077374
H      -2.421673   -2.292973    1.802813
H      -2.937617   -3.221927   -1.125738
H      -3.804990   -0.909470   -1.487430
H      -4.385630   -1.132275    0.160467
