19

C      -0.180602    1.150250   -0.699666
O      -0.019691   -0.232353   -0.354758
C       0.901238   -0.905293   -1.073312
O       1.557107   -0.418906   -1.955674
C       0.983109   -2.342348   -0.558409
O       1.899334   -3.139998   -1.253376
C       1.371034   -3.803738   -2.368025
C       1.314789   -3.119585   -3.709703
C       2.349421   -4.191059   -3.426273
H       0.756142    1.694370   -0.555219
H      -0.488851    1.252952   -1.743092
H      -0.952580    1.535046   -0.033446
H       1.309958   -2.293406    0.486996
H      -0.030450   -2.768380   -0.555932
H       0.575498   -4.506051   -2.114982
H       0.487670   -3.356500   -4.370659
H       1.661803   -2.095265   -3.743045
H       3.370207   -3.858765   -3.276766
H       2.248943   -5.164550   -3.892538
