16

N      -0.078898   -1.083781   -0.384703
C      -0.055518    0.051692   -0.167532
C      -0.012401    1.480430    0.095220
C      -0.035495    1.927158    1.593851
N       1.339118    2.481730    1.469913
C       1.375951    2.155378    0.038129
C       2.589571    1.697052   -0.700540
C       1.921054    3.014426   -1.058836
H      -0.767906    1.978372   -0.517944
H      -0.818739    2.660342    1.808245
H      -0.104237    1.109452    2.315730
H       1.380779    3.478793    1.652865
H       3.530959    1.737168   -0.163432
H       2.489966    0.862621   -1.386899
H       1.369813    3.079997   -1.991902
H       2.426651    3.932496   -0.774293
