17

C      -0.271069    1.326298    0.059975
N       0.075697   -0.091585   -0.022074
C       0.840224   -0.457092   -1.213721
C       1.303858   -1.912375   -1.106816
C       0.187052   -2.703885   -1.766992
O      -0.062808   -3.865369   -1.710053
O      -0.552495   -1.835382   -2.553897
C      -0.118172   -0.530561   -2.396059
N      -0.491762    0.430088   -3.114787
H       0.605466    1.996091    0.035072
H      -0.916526    1.595482   -0.778719
H      -0.819106    1.503788    0.989124
H       0.612764   -0.355894    0.796900
H       1.655746    0.244505   -1.445589
H       2.222246   -2.086794   -1.677431
H       1.470262   -2.262872   -0.087037
H      -1.162423    0.122641   -3.821903
