14

N       0.150333    1.402120    0.038387
C       0.097975    0.028321   -0.085527
N      -0.791293   -0.552439   -0.863591
O      -0.486854   -1.924434   -0.808393
C       0.557274   -2.102972    0.010790
C       1.006649   -3.523646    0.178938
C       2.110085   -3.650071    1.127387
N       2.982329   -3.745051    1.877877
C       0.988633   -0.920189    0.510399
H       0.432276    1.733815    0.948891
H      -0.682377    1.866746   -0.297449
H       0.167273   -4.141825    0.520331
H       1.317590   -3.934898   -0.789554
H       1.812308   -0.742664    1.181201
