16

C      -0.031291    1.470711    0.049689
C       0.006303   -0.017337   -0.022510
N       0.067310   -0.686238   -1.108342
C       0.069933   -2.119140   -0.746010
C       1.191084   -2.828419   -1.374991
N       2.077224   -3.404223   -1.841427
C       0.102240   -2.143118    0.791862
C       1.222078   -1.454746    1.470148
N      -0.061455   -0.740453    1.218562
H       0.791118    1.838302    0.672910
H       0.042480    1.901511   -0.948435
H      -0.961023    1.796008    0.527264
H      -0.857408   -2.578971   -1.110018
H      -0.484709   -2.888647    1.315279
H       1.425177   -1.662959    2.515170
H       2.082310   -1.161039    0.874558
