17

O       0.022543    0.019315    0.158901
C      -0.028421    1.213022    0.029740
C      -1.312695    2.068989   -0.079543
C      -0.772660    3.428626   -0.506650
C       0.146598    4.229584    0.475220
C       0.964849    3.135212    1.184804
C       1.129311    2.196850   -0.066872
C       0.638103    3.243198   -1.126469
O       1.026452    4.546259   -0.643368
H      -1.977315    1.628869   -0.830024
H      -1.858736    2.069080    0.869572
H      -1.435101    4.075040   -1.079498
H      -0.185257    5.099387    1.041378
H       1.923767    3.529405    1.524616
H       0.457205    2.656423    2.026591
H       2.106925    1.740674   -0.200400
H       0.844349    3.064184   -2.180836
