21

C       0.125950    1.487517    0.120863
C      -0.032537   -0.016667    0.027244
C       0.229842   -0.675854   -1.385405
C      -1.207524   -1.339637   -1.418394
C      -1.253822   -2.877176   -1.223382
C      -0.586749   -3.002654    0.148141
C      -0.668197   -1.837674    0.797033
C       0.397737   -0.877141    1.286508
C      -1.403742   -0.768025   -0.000877
H       1.182686    1.777565    0.069830
H      -0.395428    1.993575   -0.699482
H      -0.278981    1.873008    1.063190
H       0.348994    0.087623   -2.158405
H       1.077108   -1.363241   -1.451373
H      -1.844266   -0.967235   -2.225710
H      -2.281846   -3.263722   -1.279792
H      -0.674657   -3.416675   -1.982900
H       0.096837   -3.809709    0.390139
H       1.419843   -1.259877    1.360701
H       0.150853   -0.317003    2.196375
H      -2.338967   -0.350336    0.377825
