21

C       0.053779    1.110630    0.134157
O      -0.406754   -0.109632   -0.416289
C       0.490016   -0.672272   -1.324129
C       1.518930   -1.672732   -0.837939
C       1.691752   -1.980663    0.633752
C       0.294895   -2.132363   -1.625362
C      -0.843822   -2.910690   -0.987019
C      -2.153502   -2.629657   -1.696915
O      -2.862777   -3.469321   -2.189757
H       0.984956    0.976784    0.701255
H       0.228677    1.861513   -0.650569
H      -0.727055    1.475211    0.805355
H       0.762704   -0.003326   -2.142074
H       2.445591   -1.691785   -1.406262
H       0.790372   -1.747567    1.204754
H       1.932587   -3.036955    0.794787
H       2.510613   -1.388471    1.055933
H       0.488141   -2.420943   -2.655256
H      -0.655741   -3.988140   -1.009818
H      -0.972893   -2.600286    0.055316
H      -2.420534   -1.550040   -1.734439
