17

C       0.014102    1.469414   -0.106899
C       1.339650    0.770336    0.021290
C       1.939250    0.545244    1.387064
O       0.861094    0.091268    2.216311
C      -0.049988   -0.656347    1.399505
C       0.017243   -0.028445    0.029562
C       0.502004   -0.765685   -1.259298
O       0.761199    0.210214   -2.272846
C       1.754805   -0.009003   -1.267101
H      -0.310214    2.015418    0.772865
H      -0.256001    1.906715   -1.058638
H       2.740333   -0.210342    1.324634
H       2.349117    1.437057    1.871429
H       0.245463   -1.717355    1.340235
H      -1.025605   -0.601425    1.892543
H       0.243656   -1.767297   -1.582311
H       2.758580   -0.248298   -1.597981
