16

O       0.066530    1.425614    0.127515
C       0.001447    0.036450    0.023087
C      -1.400991   -0.551809   -0.090085
O      -2.244205    0.095874   -1.065805
C      -2.336570   -1.114754   -1.851634
C      -1.230434   -1.775177   -1.019463
O       0.063457   -1.649850   -1.636212
C       0.671620   -0.501634   -1.229704
N       1.647832    0.073242   -1.780124
H       0.756790    1.703525   -0.492427
H       0.486974   -0.451262    0.889175
H      -1.912196   -0.694838    0.865777
H      -3.319107   -1.593488   -1.751879
H      -2.102873   -0.952690   -2.908366
H      -1.353425   -2.797279   -0.664498
H       1.951955   -0.399568   -2.630786
