17

C       0.241682    1.417769    0.125110
C       0.006327   -0.056419    0.044926
C       0.057326   -0.822263   -1.051728
C      -0.196157   -2.261654   -0.746654
O       1.050783   -3.066183   -0.611095
C       0.934099   -3.085912    0.753047
O       1.680898   -3.572981    1.540841
C      -0.390264   -2.312416    0.784121
C      -0.334254   -0.858761    1.289313
H       1.089441    1.641234    0.784626
H       0.449661    1.849137   -0.857001
H      -0.628233    1.932719    0.551439
H       0.280289   -0.464801   -2.050253
H      -0.885159   -2.791846   -1.405380
H      -1.221331   -2.899850    1.173824
H       0.410053   -0.720955    2.082697
H      -1.295609   -0.540397    1.711106
