17

O       0.247743    0.245619   -0.808612
C       0.075368    1.250528   -0.139421
N       1.083731    1.807659    0.611234
C       2.425374    1.266651    0.571299
C       3.406618    2.231108    0.056981
N       4.174674    3.006388   -0.321865
C      -1.233591    1.959164   -0.056127
C      -2.092136    1.957886   -1.309279
C      -2.484866    1.103965   -0.150177
H       0.923566    2.671582    1.102516
H       2.754855    0.929271    1.561542
H       2.382566    0.392437   -0.086160
H      -1.275819    2.839097    0.577304
H      -2.660834    2.856441   -1.517947
H      -1.663831    1.461694   -2.171884
H      -2.318377    0.037092   -0.238556
H      -3.331591    1.399925    0.458028
