17

C       0.104935    1.507430   -0.107249
C       0.029599    0.020707    0.034714
N       0.035582   -0.751831   -1.056171
N      -0.048549   -2.044828   -0.591703
C      -0.098875   -2.050620    0.747974
C      -0.050538   -0.767445    1.208101
C      -0.157622   -0.820889    2.707544
C      -0.098059   -2.373756    2.940666
O      -0.201359   -3.050862    1.640281
H       0.984484    1.914457    0.404339
H       0.164133    1.775808   -1.164036
H      -0.775290    1.996138    0.325818
H      -0.052157   -2.809488   -1.242664
H       0.659322   -0.324002    3.241361
H      -1.094875   -0.398792    3.090269
H       0.854512   -2.678754    3.383258
H      -0.914028   -2.749881    3.560525
