14

O      -0.035973    1.279931   -0.058987
N       0.031659   -0.111922    0.044240
C      -1.116539   -0.636208   -0.038408
C      -2.571627   -0.164571   -0.088686
C      -2.955878   -1.647018    0.078769
O      -2.376721   -2.381337   -1.002054
C      -1.510002   -2.075727    0.089328
C      -4.060943   -2.257901    0.840312
O      -4.839474   -1.623611    1.508344
H       0.887954    1.540218    0.027603
H      -2.836867    0.452562    0.772884
H      -2.917648    0.307397   -1.009611
H      -1.014369   -2.897233    0.591640
H      -4.102872   -3.364365    0.751255
