18

C      -0.014155    1.493022   -0.030183
C       1.519268    1.830729    0.074989
C       1.840687    1.677055    1.535735
C       1.488469    0.493338    2.053063
C       0.987958   -0.500548    1.056999
C       1.993501   -0.711575   -0.085044
C       2.086513    0.645674   -0.762546
C       0.955441   -0.307604   -1.079145
N      -0.025621    0.026756   -0.013806
H      -0.599196    1.922315    0.785890
H      -0.426431    1.820361   -0.991097
H       1.796943    2.803479   -0.333598
H       2.247394    2.496250    2.118914
H       1.581767    0.232775    3.101407
H       0.590353   -1.417881    1.490886
H       2.770857   -1.464130   -0.132071
H       2.896624    0.805636   -1.463124
H       0.654564   -0.681940   -2.048892
