20

C      -0.152947    1.571011    0.027905
C      -0.062148    0.045506   -0.040915
C       0.795366   -0.464986   -1.215584
C       2.283852   -0.239114   -1.112687
C       2.900497   -1.422680   -1.183533
N       1.988295   -2.480889   -1.330595
C       2.317316   -3.886113   -1.399497
C       0.691465   -1.995613   -1.347663
O      -0.313781   -2.669249   -1.431574
H       0.831718    2.029563    0.167540
H      -0.585037    1.983734   -0.890634
H      -0.784867    1.886692    0.863698
H       0.350343   -0.347214    0.896214
H      -1.060572   -0.391321   -0.152202
H       0.393953   -0.031765   -2.143500
H       2.767511    0.720097   -1.011306
H       3.957414   -1.649670   -1.149900
H       2.942885   -4.108071   -2.271480
H       2.842308   -4.219145   -0.496755
H       1.375907   -4.431569   -1.486616
