16

C      -0.074600    1.440359   -0.170582
N       0.057053    0.001052   -0.090908
C      -0.994459   -0.674264    0.023423
O      -0.939075   -2.025222    0.082262
C      -2.193819   -2.671924    0.310138
C      -2.037831   -4.105583    0.147788
C      -1.949065   -5.304660    0.023765
C      -1.841477   -6.653398   -0.116751
C      -1.748107   -7.850441   -0.241281
H       0.501844    1.905699    0.636754
H       0.355364    1.795987   -1.113708
H      -1.114437    1.801292   -0.106493
H      -2.012617   -0.255146    0.074873
H      -2.554361   -2.449028    1.325233
H      -2.949222   -2.297728   -0.396788
H      -1.661577   -8.903150   -0.350801
