15

O       0.527793    0.116615    0.883799
C      -0.188950    0.373592   -0.316749
C      -1.548236   -0.268383   -0.306126
N      -2.610482    0.222205   -0.820346
C      -3.664538   -0.777187   -0.593536
C      -3.024955   -1.916094    0.200742
N      -3.613268   -2.949202    0.645024
N      -1.689795   -1.518556    0.288186
H       0.117998    0.629264    1.588611
H      -0.306437    1.441579   -0.531061
H       0.413226   -0.065704   -1.120191
H      -4.507510   -0.338142   -0.050188
H      -4.058899   -1.143096   -1.548197
H      -2.971092   -3.570852    1.139123
H      -0.970515   -1.956542    0.839925
