16

C       0.449704    1.486648    0.207259
C      -0.012678    0.030994    0.057140
C       0.412619   -0.537820   -1.275070
O       1.755231   -0.968445   -1.438681
C       0.740573   -1.976917   -1.535616
C       0.725054   -2.983828   -0.411442
O       0.225660   -4.070478   -0.501776
C       0.488065   -2.505413   -2.862042
N       0.281029   -2.912892   -3.922540
H       1.540416    1.554929    0.161275
H       0.037609    2.117699   -0.586983
H       0.122111    1.896962    1.165895
H       0.386418   -0.573258    0.875868
H      -1.106184   -0.026486    0.116676
H       0.022127   -0.007419   -2.146133
H       1.235453   -2.623119    0.503626
