20

O       0.483839    0.449359    0.946572
C      -0.072269    0.327583   -0.360863
C      -1.409172   -0.399832   -0.344717
C      -2.090682   -0.780470   -1.673626
C      -1.343851   -1.870661   -2.396410
C      -2.204306   -2.242089   -1.221118
C      -1.465997   -1.893557    0.056469
C      -0.487805   -2.685867    0.834863
N      -1.845406   -2.405290    1.364512
H      -0.090378    1.029791    1.456617
H      -0.180567    1.312834   -0.841395
H       0.665516   -0.235757   -0.939358
H      -2.116487    0.163833    0.280392
H      -2.832231   -0.173230   -2.177529
H      -1.746749   -2.127939   -3.370910
H      -0.262318   -1.955936   -2.330593
H      -3.047239   -2.917791   -1.289630
H      -0.306983   -3.727396    0.582497
H       0.352367   -2.156667    1.273585
H      -1.788961   -1.660313    2.056020
