17

O       0.197678    0.009555    0.486343
C       0.127155    1.185350    0.255362
N      -0.969210    2.055650    0.124879
C      -0.100699    3.218763   -0.086812
C       0.871799    3.387062    1.036912
C       1.123425    2.308821   -0.027535
C       2.347034    2.220484   -0.858800
C       3.148080    0.966221   -0.849948
N       2.385053    1.353194   -2.049134
H      -1.758736    2.047103    0.761569
H      -0.347355    3.965800   -0.829050
H       1.548315    4.235709    0.972651
H       0.591823    3.107248    2.048612
H       2.868970    3.165421   -0.997925
H       4.228020    1.015494   -0.956594
H       2.773932    0.144927   -0.246143
H       1.533996    0.797194   -2.099998
