17

C       0.040918    1.564593    0.059807
C      -0.032480    0.063125   -0.034966
C       0.831090   -0.591548   -1.119113
O       0.473074   -1.959540   -1.295053
C       0.159797   -2.655476   -0.091796
C      -0.606339   -1.733359    0.851915
O       0.289639   -0.642252    1.216798
C      -1.380347   -0.692457    0.019286
O      -2.511834   -0.464249   -0.271361
H       1.079130    1.904907    0.129595
H      -0.412585    2.016459   -0.827345
H      -0.499388    1.914132    0.942594
H       0.685146   -0.115926   -2.093704
H       1.885629   -0.486335   -0.821514
H      -0.437955   -3.522817   -0.388100
H       1.069115   -3.002649    0.421271
H      -1.063949   -2.226670    1.711754
