18

C      -0.173012    1.527098    0.203412
N       0.029580    0.095670    0.129147
C      -1.159863   -0.777093    0.288037
C      -0.395216   -1.660654    1.294703
O       0.490929   -2.639056    0.730739
C       1.623619   -1.729678    0.766729
C       0.731253   -0.568897    1.237065
C      -1.083630   -2.124037    2.541521
O      -2.012434   -1.545446    3.049564
H       0.793409    2.040629    0.169812
H      -0.754762    1.856560   -0.663467
H      -0.707728    1.853015    1.114785
H      -2.001147   -0.283763    0.794897
H      -1.501619   -1.265635   -0.629198
H       2.371472   -2.066143    1.495873
H       2.081982   -1.593150   -0.217045
H       1.044863    0.056815    2.075763
H      -0.646301   -3.049130    2.976202
