17

O       0.063575   -0.016295   -0.154422
C       0.017085    1.184397   -0.045014
C      -1.274674    2.034468    0.074398
C      -0.794242    3.475174   -0.115871
C      -1.090720    4.616773    0.862347
O       0.020802    5.507624    0.703245
C       1.201818    4.748295    0.420031
C       0.704826    3.381458    0.067662
C       1.163873    2.127279    0.072163
H      -2.030132    1.701006   -0.639405
H      -1.680853    1.875887    1.080871
H      -1.012689    3.831768   -1.131383
H      -1.995657    5.187093    0.641645
H      -1.151778    4.239158    1.896134
H       1.742327    5.240112   -0.398486
H       1.869119    4.718663    1.293403
H       2.183429    1.787071    0.200042
