12

N       0.104373    1.401510    0.168010
C      -0.011529    0.035235    0.037770
C      -1.060229   -0.826994   -0.014579
O      -0.616035   -2.160447   -0.039825
C       0.713406   -2.076754   -0.017108
N       1.749468   -2.881316   -0.044016
N       2.812222   -2.023606   -0.006543
N       2.468138   -0.766666    0.040142
N       1.109547   -0.793942    0.037228
H       0.931245    1.783477   -0.272654
H      -0.727258    1.915869   -0.083833
H      -2.124998   -0.683855   -0.025507
