16

O       0.209795    0.551419   -1.059167
C       0.133767    1.395675   -0.191150
N       1.127906    1.714379    0.680806
C       2.430952    1.086907    0.638249
C       3.501590    1.980996   -0.032760
C       3.712775    3.297823    0.724441
O       3.035590    3.656697    1.653021
C       4.786798    1.305890   -0.168619
C       5.855317    0.759358   -0.230017
H      -0.777255    1.999670   -0.011880
H       1.004773    2.482523    1.321465
H       2.757922    0.841623    1.652557
H       2.330165    0.163071    0.067738
H       3.138857    2.261532   -1.034484
H       4.557776    3.911526    0.349610
H       6.793338    0.266537   -0.306426
