21

C      -0.028107    1.480248   -0.012169
C      -0.037453    0.024873    0.002296
C      -0.058787   -1.178385    0.008729
C      -0.038837   -2.637152    0.033617
C       0.840150   -3.189841    1.173705
C       0.778089   -4.723104    1.196915
C      -0.681787   -5.196444    1.215088
C      -1.462018   -4.523623    0.084434
O      -1.381063   -3.108598    0.155518
H       0.613742    1.884266    0.778490
H       0.337474    1.868494   -0.969224
H      -1.036260    1.879717    0.143623
H       0.374697   -3.003721   -0.924933
H       1.867558   -2.835144    1.042356
H       0.467556   -2.777274    2.118065
H       1.277014   -5.120047    0.301796
H       1.326755   -5.114314    2.060079
H      -0.744352   -6.285850    1.111916
H      -1.147765   -4.930442    2.171734
H      -1.081625   -4.873951   -0.891897
H      -2.527801   -4.764784    0.133458
