15

O      -0.057611    0.068925    0.005710
C      -0.029476    1.266355    0.011473
C      -1.277184    2.179230    0.032649
N      -0.678197    3.489902    0.031085
N      -1.260552    4.697656    0.044306
C      -0.222699    5.538893    0.034599
C       1.022696    4.868367    0.014789
C       0.680456    3.531643    0.013233
C       1.241348    2.148555   -0.000776
H      -1.903310    2.000163   -0.848021
H      -1.879507    1.991388    0.927982
H      -0.403742    6.603777    0.042004
H       2.009524    5.300688    0.003668
H       1.860650    1.904718    0.869965
H       1.837944    1.913247   -0.889511
