18

C      -0.053087    1.451374   -0.005114
N      -0.003780   -0.005752   -0.004140
C       0.004372   -0.670017    1.203867
O      -0.026750   -0.131418    2.287164
C       0.033558   -0.676580   -1.221671
C       0.030525   -0.145790   -2.447905
C       0.079653   -1.242143   -3.468781
O       0.111566   -2.457490   -2.719439
C       0.085609   -2.186748   -1.329908
H       0.830094    1.860157   -0.506374
H      -0.948949    1.799841   -0.528899
H      -0.077381    1.782164    1.031623
H       0.042860   -1.764776    1.084291
H      -0.001563    0.902306   -2.706236
H      -0.798359   -1.244436   -4.133995
H       0.971502   -1.184919   -4.112785
H       0.981334   -2.608645   -0.846928
H      -0.791227   -2.668149   -0.868378
