14

C      -0.088960    1.547274    0.017595
C      -0.036155    0.030392   -0.016298
C       1.243514   -0.641596   -0.597517
O       1.984165   -0.242055    0.630265
C       0.677544   -0.692609    1.173161
C       0.425113   -0.598269    2.579866
N       0.176841   -0.545857    3.707879
C       0.890508   -1.919225    0.200067
O       0.900791   -3.097801    0.171113
H       0.871874    1.965884    0.321492
H      -0.345961    1.936675   -0.972052
H      -0.856652    1.884838    0.719917
H      -0.983823   -0.424499   -0.321435
H       1.740521   -0.497558   -1.552704
