18

O       0.148710    1.376638   -0.312457
C       0.092025   -0.019825   -0.024499
C       0.887081   -0.394532    1.243170
N       0.089944   -0.790682    2.401998
C      -1.262867   -0.327729    2.649309
C      -2.133266   -0.156640    1.359234
C      -1.826980   -1.594523    0.979021
C      -1.346684   -0.461604    0.106590
C      -0.982173   -1.750970    2.285037
H      -0.424079    1.820029    0.323850
H       0.551273   -0.493089   -0.898171
H       1.566091   -1.228660    1.036867
H       1.503906    0.464961    1.524856
H      -1.498999    0.124264    3.605916
H      -3.091413    0.345294    1.352040
H      -2.514535   -2.348303    0.619261
H      -1.927915   -0.338875   -0.803765
H      -0.965785   -2.648698    2.892611
