14

O      -0.129726    0.122963    0.260102
C      -0.147365    1.303830    0.151799
C      -1.176454    2.383992   -0.171609
C       0.086143    3.111975   -0.788587
C       0.441845    3.548891    0.571999
N       0.987886    2.236042    0.053509
C      -0.982949    3.324801    1.031858
C      -1.914033    4.271688    1.632094
O      -1.445572    3.100394    2.335789
H      -2.148021    2.176222   -0.609054
H       0.343428    3.432526   -1.785720
H       1.177253    4.264406    0.914684
H      -1.549833    5.221517    2.020907
H      -2.964881    4.254152    1.348755
