13

C       0.027107    1.577038    0.005899
C       0.004891    0.038085   -0.024664
C      -1.437981   -0.541127    0.025324
C      -2.127807   -0.170100    1.257971
N      -2.655382    0.132561    2.240208
C       0.679384   -0.475578   -1.220767
N       1.199184   -0.878084   -2.170910
H       1.054926    1.945609   -0.007307
H      -0.496693    1.990381   -0.860564
H      -0.461764    1.934885    0.915194
H       0.550389   -0.343168    0.846429
H      -2.013214   -0.175456   -0.831956
H      -1.407129   -1.632469   -0.049971
