23

C      -1.665380   -0.151813   -0.132060
C      -0.153364    0.008648    0.071663
C       0.654685   -0.552705   -1.089607
C       2.201091   -0.582548   -1.108277
C       2.801301   -0.953271    0.252691
C       2.401623   -2.408747    0.613766
C       1.069560   -2.858923   -0.044260
C       0.848276   -2.070355   -1.340207
O       2.147490   -1.781328   -1.939624
H      -1.994699    0.348239   -1.049493
H      -1.947085   -1.207290   -0.214483
H      -2.227456    0.277471    0.702815
H       0.086580    1.074581    0.182885
H       0.138583   -0.464317    1.015523
H       0.313998   -0.097337   -2.025835
H       2.729274    0.237684   -1.603308
H       3.892623   -0.873954    0.215735
H       2.463832   -0.235374    1.009305
H       3.190037   -3.068330    0.244880
H       2.364641   -2.545007    1.698635
H       1.113868   -3.931112   -0.261248
H       0.213192   -2.714540    0.624878
H       0.177628   -2.573594   -2.042367
