8

O       0.115175    1.313526   -0.090065
C       0.065848   -0.015625   -0.071516
N      -0.051901   -0.716826   -1.171184
O      -0.061668   -2.037625   -0.676262
C       0.051007   -1.950565    0.643070
N       0.134646   -0.739502    1.097080
H       0.202010    1.608884    0.824713
H       0.061934   -2.874159    1.203423
