19

C       0.001360    1.465039   -0.028349
C       0.028253   -0.037141   -0.059052
C       0.565120   -0.962273   -1.170869
C       0.058239   -1.943427   -0.089310
C       0.072115   -3.374584   -0.093916
C       0.088523   -4.578279   -0.107387
C       0.539132   -0.997898    1.080972
C      -0.835907   -1.038338    1.773337
C      -1.165848   -1.011836    0.269285
H       1.013563    1.877893   -0.103459
H      -0.583462    1.864848   -0.864279
H      -0.444058    1.838746    0.900208
H       0.019725   -0.965030   -2.120592
H       1.646113   -0.951740   -1.346320
H       0.103197   -5.639769   -0.118801
H       1.539789   -1.006628    1.517124
H      -1.085363   -1.956106    2.313083
H      -1.120821   -0.157589    2.356686
H      -2.135055   -1.036672   -0.232353
