15

O       0.034476    1.371269    0.009234
C      -0.014031   -0.033100    0.002821
C      -1.470799   -0.483268    0.012423
O      -2.397540    0.294401    0.023304
C      -1.702855   -1.946928    0.007777
N      -0.691982   -2.823363   -0.004017
N      -1.291223   -4.018286   -0.004661
C      -2.649980   -3.940500    0.006332
C      -2.958367   -2.601733    0.014631
H       0.959986    1.631384    0.001384
H       0.467488   -0.476763   -0.883739
H       0.481821   -0.485291    0.877088
H      -0.722929   -4.849390   -0.012734
H      -3.265131   -4.826168    0.007216
H      -3.929729   -2.138105    0.024253
