17

C      -0.023988    1.522575   -0.036613
N       0.123608    0.071389    0.089940
C       0.609865   -0.581516   -1.109387
C       1.024373   -2.047994   -0.856967
N       0.644782   -2.737310   -2.081524
C      -0.242347   -2.084036   -2.889288
O      -0.768811   -2.492040   -3.896205
C      -0.433196   -0.698600   -2.226616
O      -1.260344    0.105342   -2.555513
H       0.905569    2.034411   -0.342856
H      -0.793128    1.743469   -0.777753
H      -0.341632    1.931573    0.926073
H       0.762523   -0.132785    0.852068
H       1.470670   -0.058659   -1.578438
H       2.096991   -2.150693   -0.666142
H       0.477490   -2.433640    0.013355
H       0.887057   -3.699583   -2.260785
