17

C       0.009246    1.478728   -0.094469
C       0.006892   -0.011527    0.029533
N      -0.024823   -0.786389   -1.056736
N      -0.016748   -2.041000   -0.588062
C       0.019270   -2.101421    0.776884
C       0.033642   -3.319849    1.484786
C       0.045560   -4.363271    2.087374
C       0.035591   -0.782637    1.218231
C       0.074925   -0.301438    2.632942
H       0.907202    1.917853    0.355341
H      -0.023009    1.764354   -1.147759
H      -0.854488    1.925206    0.411518
H      -0.037017   -2.816319   -1.228562
H       0.055675   -5.281047    2.621429
H       0.964287    0.309518    2.827576
H      -0.796634    0.318808    2.873316
H       0.088607   -1.143442    3.329564
