20

C      -0.096222    1.482252   -0.165495
C      -0.042350   -0.020257    0.098337
N      -1.367868   -0.621237    0.083882
C      -2.271215   -0.347869    1.231261
C      -2.600385   -1.847219    1.256435
O      -3.392067   -2.534920    1.823313
C      -1.469269   -2.099549    0.241725
C      -1.812031   -2.823914   -1.057462
O      -2.829432   -2.142602   -1.754096
H       0.911608    1.907640   -0.170000
H      -0.566238    1.686942   -1.131698
H      -0.672872    2.000269    0.607999
H       0.552840   -0.510827   -0.680571
H       0.470513   -0.213272    1.060492
H      -1.748874   -0.036000    2.150633
H      -3.092991    0.347192    1.033883
H      -0.596236   -2.558488    0.734837
H      -0.899720   -2.930551   -1.669174
H      -2.175354   -3.830780   -0.824839
H      -2.593494   -1.206083   -1.678819
