14

N       0.705846    0.642113   -1.132057
C       0.259300   -0.360334   -0.315877
N      -1.004971   -0.663100   -0.143412
O      -1.035097   -1.644181    0.828108
N       0.219499   -1.970447    1.236725
C       1.031649   -1.205032    0.559830
N       2.397862   -1.267857    0.827292
C       3.446303   -1.002276   -0.013486
N       3.321935   -0.536120   -1.194247
H       1.633576    0.451025   -1.511352
H       0.017800    0.958836   -1.800073
H       2.616774   -1.774679    1.671480
H       4.402342   -1.234635    0.466173
H       4.230969   -0.394410   -1.624073
