19

C      -0.001919    1.503317    0.049737
C      -0.000569    0.048218    0.032962
C      -0.000146   -1.158244    0.021865
C       0.009374   -2.577403   -0.007737
C      -0.284886   -3.468225    1.201457
C      -1.122790   -3.619860   -0.024140
C      -2.607617   -3.521900   -0.125783
O      -0.436864   -4.435258   -0.980242
C       0.632647   -3.461842   -1.089407
H       0.814537    1.904658   -0.561195
H      -0.939528    1.911005   -0.345346
H       0.127036    1.891908    1.066274
H       0.415976   -4.252217    1.477569
H      -0.745522   -2.939682    2.029387
H      -2.986478   -2.770014    0.571869
H      -2.911228   -3.246094   -1.139878
H      -3.072622   -4.482937    0.122183
H       0.630944   -2.993235   -2.078910
H       1.617458   -3.895658   -0.879360
