14

O      -0.017863    1.588404   -0.371471
C      -0.023324    0.238203    0.043394
C      -1.469816   -0.278968    0.009313
O      -1.666633   -0.859276   -1.279985
C      -0.447605   -1.448163   -1.708425
C       0.654081   -0.629995   -1.044493
O       1.818310   -0.580796   -1.332406
C      -1.715135   -1.274812    1.072277
N      -1.893934   -2.066627    1.894174
H       0.892354    1.816168   -0.599188
H       0.457979    0.097553    1.018890
H      -2.178231    0.546339    0.112287
H      -0.365583   -2.500621   -1.393609
H      -0.392284   -1.401726   -2.798217
