16

C      -0.016073    1.470835   -0.319351
O       1.071197    2.106852    0.359568
C       2.034001    1.159237    0.851436
C       2.157870    1.319768    2.408684
N       0.861258    0.789818    2.945965
C       0.476997    0.033391    2.012814
O      -0.753477   -0.211843    1.443763
C      -0.079748    0.004764    0.121969
C       1.300707   -0.172766    0.770560
H      -0.930832    2.023801   -0.089565
H       0.146154    1.491355   -1.408248
H       2.981508    1.254397    0.309742
H       3.037422    0.792604    2.800702
H       2.232261    2.373066    2.689690
H      -0.469976   -0.696000   -0.614168
H       1.851076   -1.099917    0.636614
