21

C       0.244444    1.475361   -0.159648
C      -0.087104   -0.011156    0.038444
C      -1.617696   -0.237558    0.264044
C      -1.682548   -1.165581    1.448022
C      -0.489499   -1.375941    1.998998
C       0.628896   -0.658902    1.286594
C       1.732756   -1.606619    0.729773
C       1.409191   -1.695565   -0.739973
C       0.447574   -0.851144   -1.102287
H       1.322922    1.628850   -0.270441
H      -0.241821    1.872454   -1.058166
H      -0.099603    2.069549    0.694374
H      -2.137571    0.707960    0.473575
H      -2.104195   -0.659027   -0.624841
H      -2.616796   -1.585895    1.805809
H      -0.305505   -1.996889    2.870418
H       1.076844    0.101057    1.938629
H       2.741697   -1.202792    0.889508
H       1.716410   -2.586881    1.222217
H       1.931048   -2.370136   -1.410856
H       0.066262   -0.733390   -2.112529
