17

C       0.180773   -1.170128   -0.244754
C       0.097158    0.021321   -0.113644
C       0.011309    1.478590    0.044054
N       1.282781    2.168694   -0.011266
C       2.109075    2.394554    1.070244
N       3.313067    2.757431    0.815365
C       3.452264    2.683327   -0.622607
C       3.285659    1.326092   -1.271471
C       2.098176    2.254358   -1.194864
H       0.253250   -2.223677   -0.358200
H      -0.648292    1.888275   -0.731907
H      -0.460580    1.718038    1.004560
H       1.704927    2.289858    2.072708
H       4.097221    3.419791   -1.086633
H       3.732470    1.204137   -2.251793
H       3.300891    0.445191   -0.639143
H       1.621937    2.654849   -2.083437
