19

O      -0.538106    0.213053    0.391844
C      -0.267025    1.359851    0.161881
C       1.143870    1.911628    0.000783
C       1.659366    2.550305    1.328494
C       2.582264    1.318052    1.373849
O       2.139417    0.877397    0.071117
C       1.235239    2.740704   -1.260715
C       2.572389    3.005027   -1.900210
C       1.591910    2.070432   -2.564349
H      -1.058456    2.142967    0.070584
H       2.169182    3.502509    1.176158
H       0.933945    2.646121    2.138467
H       3.658730    1.517977    1.391213
H       2.336268    0.582795    2.148023
H       0.502197    3.542394   -1.305010
H       2.742332    3.980939   -2.340848
H       3.441383    2.550289   -1.439136
H       1.822977    1.012186   -2.526027
H       1.083918    2.397128   -3.464397
