15

O       0.099604    1.351237    0.664060
C       0.067799    0.055781    0.155626
C      -0.468653   -0.984068    1.093485
C      -1.280072   -0.591244   -0.116880
N      -2.483671    0.172571    0.011763
C      -2.882578    1.114926    0.888318
N      -4.081854    1.537810    0.546237
N      -4.415331    0.834742   -0.565284
N      -3.474646    0.016832   -0.900437
H       0.002013    1.971513   -0.067843
H       0.887846   -0.211690   -0.508767
H      -0.023640   -1.971984    1.105591
H      -0.806087   -0.622374    2.058483
H      -1.372052   -1.287925   -0.939702
H      -2.288878    1.461743    1.715182
