18

C      -0.359262    1.035151   -0.267113
C       1.057963    1.120690    0.266470
C       0.426666   -0.212166    0.041221
O       0.116234   -0.941577    1.191421
C      -0.890944   -1.852170    1.055867
C      -1.710723   -2.089456   -0.028016
N      -2.560604   -3.114601    0.337645
C      -2.290867   -3.516108    1.615676
C      -1.253437   -2.750461    2.096158
H      -1.161203    1.285264    0.417632
H      -0.545792    1.291652   -1.304482
H       1.853790    1.434597   -0.399302
H       1.179153    1.426921    1.299130
H       0.769120   -0.829342   -0.788600
H      -1.768960   -1.623451   -0.995415
H      -3.272639   -3.503356   -0.253270
H      -2.851982   -4.310262    2.081069
H      -0.794685   -2.814051    3.069655
