19

C      -0.485798    1.668414    0.016293
O      -0.295854    0.386883   -0.562617
C      -1.243544   -0.551586   -0.156172
C      -1.110663   -1.979004   -0.739947
C       0.345678   -2.515391   -0.803212
C       0.158439   -3.232206    0.566948
C      -1.259302   -2.597490    0.706335
C      -1.169643   -1.170760    1.266378
O      -1.020664   -0.715555    2.365436
H       0.307860    2.311793   -0.369619
H      -1.460856    2.092087   -0.270410
H      -0.426847    1.629289    1.109936
H      -2.274654   -0.178745   -0.310236
H      -1.774831   -2.225468   -1.566522
H       0.533133   -3.193043   -1.637872
H       1.099124   -1.725948   -0.822685
H       0.107331   -4.319142    0.473629
H       0.864994   -2.988173    1.363758
H      -2.081320   -3.224802    1.051569
