20

C       0.015032    1.559142    0.067811
C       0.009037    0.044385   -0.001782
C       0.315262   -0.654420   -1.353563
N      -0.787289   -1.642551   -1.118962
C      -0.472010   -2.633820   -0.060782
C       0.178585   -2.039054    1.185179
C       0.828821   -0.669737    1.091367
C      -1.309734   -1.919183    0.980746
C      -1.358992   -0.759739   -0.027663
H       1.030856    1.957017   -0.041156
H      -0.598517    1.997003   -0.727101
H      -0.376049    1.912528    1.028952
H       0.072863   -0.043047   -2.229721
H       1.313610   -1.086173   -1.482670
H      -0.393074   -3.688904   -0.299390
H       0.539692   -2.763626    1.907888
H       1.892985   -0.702172    0.830727
H       0.738126   -0.151948    2.055769
H      -2.087991   -2.276749    1.640543
H      -2.287932   -0.230999   -0.246197
