17

C      -0.159690    1.575515   -0.064035
C       0.124549    0.072827   -0.005880
N       0.725082   -0.443174   -1.221356
C       0.090804   -0.637188   -2.469800
C       1.038729   -1.098820   -3.300885
N       1.090894   -1.388510   -4.654007
O       2.232387   -1.210297   -2.635082
C       2.040149   -0.800252   -1.314483
O       2.910972   -0.798155   -0.483101
H       0.766412    2.137460   -0.213206
H      -0.843980    1.820472   -0.882420
H      -0.618958    1.908084    0.871916
H       0.831828   -0.153646    0.795653
H      -0.798664   -0.484480    0.194583
H      -0.953385   -0.434584   -2.625630
H       0.174238   -1.503928   -5.064824
H       1.674164   -2.193034   -4.853030
