15

N      -0.094931   -1.164073   -0.115896
C      -0.050584   -0.009851   -0.051552
C      -0.007205    1.443435    0.017653
C       0.000073    2.074112    1.472233
C       1.517824    1.688824    1.520071
C       1.435487    2.100840    0.010836
C       1.033727    3.575563    0.142892
C       0.097910    3.558148    1.095773
H      -0.727755    1.871148   -0.682265
H      -0.715258    1.757656    2.228764
H       2.160757    2.292195    2.162614
H       1.693632    0.620912    1.673229
H       2.184605    1.811652   -0.723585
H       1.436162    4.397899   -0.430294
H      -0.482780    4.362187    1.523619
