16

C      -0.214915    1.419354    0.144257
N      -0.121494   -0.033170    0.100818
C       0.866154   -0.560207    1.037756
C       0.871626   -2.050947    1.037548
N       1.863926   -2.863397    0.861577
C       1.305476   -4.130990    0.985937
C      -0.018113   -4.010117    1.230398
O      -0.314850   -2.675176    1.272322
H       0.724915    1.857150   -0.211057
H      -1.011691    1.753339   -0.525961
H      -0.412781    1.831497    1.150812
H      -1.025016   -0.442526    0.313154
H       1.866074   -0.234893    0.735686
H       0.709817   -0.199033    2.074093
H       1.898420   -5.025946    0.885627
H      -0.836277   -4.691467    1.386429
