13

C       0.077905    1.541016    0.056852
C      -0.060289    0.015131   -0.061092
C       0.650965   -0.529317   -1.255946
N       0.033028   -1.155966   -2.222747
O       1.063827   -1.479443   -3.120146
C       2.182750   -1.002138   -2.577779
N       2.018320   -0.407920   -1.441237
H       1.130705    1.831372    0.102254
H      -0.377416    2.043051   -0.801962
H      -0.418552    1.898416    0.963129
H       0.361083   -0.460696    0.832026
H      -1.111515   -0.278237   -0.123994
H       3.100215   -1.155560   -3.127376
