22

C       0.810568    0.739663    0.027509
C       0.080286   -0.495954   -0.515474
C      -1.310647   -0.700360    0.093063
C      -2.379684    0.008057   -0.734078
C      -1.847477   -1.880424    0.813566
C      -0.990456   -2.607583    1.866905
C       0.379692   -2.026061    2.107335
C      -0.835178   -1.263879    2.545011
N      -1.709634   -0.553957    1.532762
H       1.749346    0.903367   -0.510508
H       0.198260    1.639553   -0.087471
H       1.041057    0.635708    1.091182
H      -0.071610   -0.364443   -1.593544
H       0.701952   -1.387273   -0.426829
H      -2.457883   -0.447930   -1.727069
H      -3.352632   -0.042968   -0.240919
H      -2.124125    1.064958   -0.863672
H      -2.839978   -2.263819    0.584772
H      -1.297384   -3.554651    2.290709
H       0.878902   -2.501274    2.948800
H       1.064058   -1.708676    1.337719
H      -0.998197   -0.974224    3.575664
