19

O      -0.005044    1.429043   -0.017155
C       0.067999    0.015443    0.031513
C       0.542857   -0.594592    1.398854
C      -0.629776   -0.435918    2.419777
C      -1.223169   -1.391987    1.376045
C      -2.319887   -2.350440    0.909783
C      -1.974040   -1.866307   -0.551518
C      -1.357509   -0.576080    0.081635
O       0.122707   -1.969058    1.195225
H       0.892417    1.776125   -0.034528
H       0.692727   -0.386858   -0.776624
H       1.588662   -0.479355    1.690351
H      -0.369521   -0.898896    3.372648
H      -1.100459    0.541247    2.547878
H      -2.188105   -3.405274    1.158868
H      -3.316390   -2.021694    1.215765
H      -1.225917   -2.507739   -1.017784
H      -2.813272   -1.724740   -1.234965
H      -2.093818    0.229200    0.139640
