17

N       0.009142   -1.145263    0.020862
C      -0.010236    0.011414    0.038584
C      -0.021188    1.457614    0.047283
C      -0.939780    2.173312    1.037734
C      -0.572793    3.629240    0.638237
N       0.426938    3.466968   -0.441038
C       1.313499    2.291823   -0.050944
C       1.450894    1.945901   -1.543510
C      -0.027477    2.289118   -1.292684
H      -1.992038    1.926832    0.872836
H      -0.694082    1.929456    2.074729
H      -1.427123    4.194763    0.256966
H      -0.128325    4.197391    1.459648
H       2.081100    2.379799    0.719797
H       2.004040    2.668542   -2.142436
H       1.686047    0.911863   -1.795204
H      -0.855035    2.373874   -1.999052
