17

C      -0.030947    1.383415    0.009423
O      -0.006578   -0.023784   -0.010889
C       0.646657   -0.546408   -1.145038
C       0.580731   -2.081086   -1.070747
C      -0.873870   -2.588923   -1.090614
C       1.372098   -2.663866   -2.151590
C       2.010462   -3.128213   -3.058356
H       0.984775    1.809355    0.020499
H      -0.565051    1.795364   -0.861327
H      -0.551594    1.688578    0.920296
H       0.163446   -0.196579   -2.072938
H       1.697406   -0.217151   -1.176305
H       1.033376   -2.367686   -0.111952
H      -1.353207   -2.340351   -2.042641
H      -0.906628   -3.674235   -0.967578
H      -1.437681   -2.119737   -0.281924
H       2.579787   -3.548098   -3.850149
