19

C      -0.296799    1.458634    0.123199
C       0.109419   -0.001977    0.056045
C       1.158495   -0.485020   -0.989701
C       1.952094   -1.018643    0.197220
C       2.261238    0.075026    1.147489
N       0.927458   -0.538551    1.220616
C       2.572875   -2.378335    0.266767
N       2.465117   -2.966313    1.496010
O       3.135539   -2.877380   -0.689360
H       0.563748    2.133882    0.139860
H      -0.901146    1.718503   -0.752442
H      -0.897172    1.648915    1.018756
H      -0.788721   -0.623504    0.010409
H       0.790231   -1.265839   -1.655394
H       1.658612    0.281717   -1.587625
H       2.879486   -0.165534    2.006211
H       2.383311    1.086934    0.769871
H       1.751308   -2.625321    2.122495
H       2.758302   -3.926873    1.574994
