16

O       0.270284    0.888743    0.958600
C      -0.054702    0.166050   -0.226848
C      -1.402669   -0.371341   -0.132500
C      -2.519454   -0.826987   -0.082766
C      -3.820293   -1.375954   -0.013336
C      -4.999403   -0.738487   -0.366708
N      -6.028216   -1.608401   -0.150000
C      -5.544367   -2.800059    0.337347
C      -4.182054   -2.690113    0.434044
H       1.168417    1.219277    0.852241
H       0.013574    0.816375   -1.114881
H       0.652697   -0.664253   -0.388345
H      -5.166410    0.255750   -0.746635
H      -6.997470   -1.404820   -0.319467
H      -6.209702   -3.615150    0.570938
H      -3.498440   -3.447332    0.783053
