16

C      -0.110280    1.527614   -0.047234
C       0.078063    0.051886    0.030672
C       0.663548   -0.972475   -0.868242
C       1.409732   -1.653582    0.274834
C       0.363757   -0.981996    1.204078
C      -0.944902   -1.645522    0.753339
N      -0.822804   -0.970319   -0.579878
H       0.807044    2.061217    0.225340
H      -0.383571    1.814060   -1.067586
H      -0.908545    1.866426    0.622885
H       0.937679   -0.894059   -1.912527
H       1.476486   -2.747156    0.295339
H       2.405878   -1.220175    0.397515
H       0.592520   -0.768022    2.246852
H      -0.988241   -2.741295    0.725593
H      -1.833868   -1.254392    1.255168
