17

C      -0.006279    1.557233    0.001864
C      -0.005066    0.051804   -0.010153
C      -0.030074   -0.651984   -1.171782
N      -0.025565   -2.028640   -1.146853
C       0.004691   -2.813856   -0.012272
O       0.034366   -4.041842   -0.063074
C       0.011659   -2.051756    1.241342
N      -0.023625   -2.845380    2.365721
C       0.018539   -0.682915    1.216294
H       0.883742    1.954677    0.504107
H      -0.025210    1.963357   -1.013148
H      -0.877949    1.953029    0.536401
H      -0.052958   -0.195575   -2.152593
H      -0.026080   -2.549783   -2.012146
H       0.206634   -3.810134    2.165901
H       0.367350   -2.471228    3.215091
H       0.035627   -0.131852    2.153533
