17

O       0.048222   -0.123147   -0.177284
C       0.047048    1.060419    0.037630
C       1.255231    1.954515   -0.059616
C       0.979529    3.311295   -0.751438
O       1.132536    4.028921    0.488302
C       1.517538    2.841938    1.189352
C       0.921761    2.598246    2.589778
O       2.234667    2.503468    3.173949
C       2.871366    2.840850    1.925685
H      -0.889448    1.593645    0.326888
H       2.111899    1.383050   -0.417945
H       1.727843    3.601869   -1.496710
H      -0.022856    3.439555   -1.176909
H       0.353003    3.460115    2.961319
H       0.338284    1.681165    2.735810
H       3.603478    2.085571    1.615519
H       3.342743    3.831635    1.945022
