20

C       0.402692    0.868857   -0.765886
C      -0.084803    0.106002    0.465461
O       0.061277    0.891658    1.655480
C      -1.490336   -0.417030    0.358497
C      -2.329469   -0.389055   -0.681895
C      -3.599193   -1.090562   -0.350279
C      -3.460480   -2.536621   -0.010912
N      -3.497920   -1.539434    1.061554
C      -2.167054   -1.101817    1.537560
H       1.413418    1.243715   -0.587291
H       0.420041    0.226016   -1.651214
H      -0.249288    1.723527   -0.979498
H       0.589005   -0.744703    0.638934
H      -0.538561    1.642324    1.575824
H      -2.135032    0.050101   -1.652332
H      -4.552265   -0.690777   -0.687194
H      -4.326624   -3.192668   -0.041755
H      -2.511327   -3.011476   -0.253008
H      -1.591718   -1.958176    1.913041
H      -2.289199   -0.414670    2.382706
