20

C       0.134150    1.488313   -0.057132
N      -0.045104    0.051632   -0.014248
C      -1.180189   -0.535842    0.478418
O      -2.114860    0.121035    0.913720
C      -1.152161   -2.034608    0.426958
C      -1.715760   -2.959402    1.489106
C      -3.019521   -2.433418    2.108452
C      -3.657645   -2.396361    0.682264
C      -2.337227   -2.923330    0.100129
H       0.270808    1.845230   -1.084472
H      -0.768328    1.937735    0.358695
H       0.998094    1.802941    0.539604
H       0.693592   -0.536729   -0.360070
H      -0.233735   -2.439321    0.005525
H      -1.068779   -3.708873    1.931188
H      -3.488067   -3.182981    2.750562
H      -2.957783   -1.482798    2.637280
H      -4.462975   -3.126353    0.571669
H      -3.992114   -1.422720    0.325482
H      -2.249903   -3.640329   -0.708586
