16

C      -0.103294    1.497723    0.007488
C       0.084529    0.009900    0.035553
C       1.007186   -0.804649   -0.908444
C       0.659886   -1.932968    0.121813
C       0.688770   -0.804921    1.208944
C      -0.844853   -2.000067   -0.104581
O      -1.605477   -2.912472   -0.218687
O      -1.204739   -0.674792   -0.158365
H       0.856998    2.000815    0.152324
H      -0.521767    1.815537   -0.952009
H      -0.786027    1.815233    0.801100
H       0.682281   -0.928131   -1.943829
H       2.053686   -0.497622   -0.857219
H       1.190329   -2.877097    0.201470
H       1.704035   -0.497903    1.467844
H       0.073731   -0.928658    2.102951
