18

C       0.066585    1.545829   -0.147982
C       1.336175    0.719557   -0.081179
C       0.004889    0.049854    0.043633
C      -0.408562   -0.544283    1.372799
N      -1.825701   -0.729588    1.641711
C      -2.671043   -1.143793    0.805880
O      -2.572555   -1.435425   -0.524806
C      -1.725892   -0.657723   -1.364451
O      -0.370112   -0.728928   -1.069498
H      -0.187643    2.183705    0.691363
H      -0.212117    1.941312   -1.118164
H       1.871194    0.556471   -1.009331
H       1.962730    0.791946    0.801091
H       0.072075   -1.528702    1.470693
H       0.001184    0.081346    2.172958
H      -3.680087   -1.380478    1.144702
H      -1.860918   -1.083076   -2.359726
H      -2.073775    0.384595   -1.330521
