21

C      -0.149795    1.488859    0.004093
C       0.063894   -0.028040    0.045578
C       0.691935   -0.555710   -1.249595
C       0.892487   -0.465922    1.281333
C       2.232083    0.147535    1.278970
N       3.289771    0.612216    1.262600
N       0.207245   -0.105156    2.523385
C      -0.719148   -1.108695    3.046274
C       0.585978   -0.859072    3.715911
H       0.798721    2.013004   -0.154800
H      -0.821756    1.754794   -0.817471
H      -0.582695    1.848107    0.940169
H      -0.911644   -0.513474    0.180043
H       1.682886   -0.119342   -1.413979
H       0.801883   -1.645552   -1.232841
H       0.066728   -0.295902   -2.108844
H       1.052035   -1.558613    1.213853
H      -1.642283   -0.720279    3.465037
H      -0.825130   -2.042635    2.496201
H       1.353223   -1.624166    3.613321
H       0.638096   -0.282686    4.634041
