15

O      -0.110348    1.463566    0.010730
C       0.039361    0.056169    0.001609
C      -1.378977   -0.532097    0.013149
C      -1.388158   -1.983339    0.005490
C      -1.382709   -3.196505   -0.001149
C      -1.375042   -4.547800   -0.008559
C      -1.369282   -5.766339   -0.015325
C      -1.362784   -7.119268   -0.022877
C      -1.357191   -8.329037   -0.029561
H       0.764668    1.862045    0.003740
H       0.572917   -0.294678   -0.893899
H       0.591321   -0.304223    0.882045
H      -1.904180   -0.154378    0.899503
H      -1.922373   -0.144973   -0.858052
H      -1.353136   -9.390756   -0.035521
