20

C      -0.259218    1.379039   -0.105868
O      -0.164444   -0.024523   -0.065641
C       0.707411   -0.541183   -1.051474
C       0.739898   -2.019873   -0.935882
C       1.127872   -3.120007   -1.851458
C       1.899652   -3.849206   -0.753334
C       1.017566   -3.044216    0.239929
C      -0.390816   -3.569321   -0.073497
N      -0.313863   -2.947667   -1.438134
H       0.717899    1.860902    0.061061
H      -0.654839    1.734961   -1.070398
H      -0.943081    1.683684    0.689876
H       0.364437   -0.269596   -2.064212
H       1.720412   -0.120087   -0.922228
H       1.317942   -3.091193   -2.916737
H       1.851545   -4.942662   -0.704354
H       2.942937   -3.523292   -0.733621
H       1.357699   -2.824951    1.249672
H      -0.554958   -4.653599   -0.059514
H      -1.179540   -3.060190    0.484302
