13

N       0.044785    1.398895    0.177185
C      -0.034728    0.024630    0.056542
C      -1.204747   -0.698066    0.020644
N      -1.200574   -2.054467   -0.018790
C      -0.073960   -2.707253   -0.041041
C       1.238700   -2.075920   -0.016059
O       2.329234   -2.617052   -0.028033
N       1.138915   -0.668130    0.035906
H       0.807058    1.842687   -0.316997
H      -0.830856    1.876601    0.020798
H      -2.164853   -0.195553    0.024766
H      -0.091213   -3.792571   -0.076017
H       2.024694   -0.184386    0.110979
