16

O      -0.087507    1.310160    0.032908
C       0.051031   -0.054736    0.011909
C       0.638371   -0.962607   -1.116082
C       0.078349   -1.915918   -0.011929
O      -0.020052   -3.284384   -0.025959
C       0.735790   -0.989068    1.060515
C      -1.188661   -1.004113    0.030665
C      -2.038378   -1.031686    1.209168
N      -2.724626   -1.053688    2.139283
H       0.783414    1.712083    0.121971
H       0.118621   -0.957931   -2.076718
H       1.724995   -0.945177   -1.231661
H       0.862235   -3.662721    0.054073
H       1.829155   -0.973257    1.078367
H       0.305002   -1.008225    2.062573
H      -1.790795   -1.001270   -0.880834
