17

O       0.025973    0.149298   -0.872477
C       0.020918    1.179577   -0.266474
C      -1.070204    1.980486    0.469964
C      -0.027441    3.119820    0.686570
O       0.349360    3.386245    2.028003
C       1.560320    2.747453    2.337093
C       1.594326    1.245349    2.382757
C       2.082973    1.986049    1.145437
C       1.096350    2.254385    0.018500
H      -1.934064    2.228939   -0.153478
H      -1.428128    1.523360    1.397155
H      -0.289930    4.063442    0.202567
H       2.186954    3.340214    2.994278
H       2.356336    0.780638    2.999595
H       0.659109    0.697899    2.347329
H       3.137713    1.951679    0.904215
H       1.591499    2.650323   -0.870636
