22

O      -0.119098    1.426496    0.231410
C      -0.075480    0.012096    0.342366
C      -1.408923   -0.538138   -0.144440
C      -1.487972   -2.064276   -0.063502
C      -2.798949   -2.631697   -0.624610
O      -3.004867   -2.251431   -1.985283
C      -2.876786   -4.134886   -0.454733
C      -3.670492   -4.726585    0.651951
N      -4.132153   -4.839558   -0.740455
H       0.719630    1.779014    0.542413
H       0.744259   -0.410484   -0.262844
H       0.100318   -0.300186    1.385610
H      -2.209795   -0.088366    0.455492
H      -1.574182   -0.216510   -1.177208
H      -0.649992   -2.513413   -0.618019
H      -1.380062   -2.399237    0.976621
H      -3.643942   -2.175573   -0.090839
H      -2.353954   -2.716378   -2.523402
H      -1.991814   -4.673469   -0.797382
H      -3.359181   -5.660820    1.110516
H      -4.187669   -4.045055    1.323450
H      -4.863432   -4.157001   -0.928943
