23

C      -0.436582    1.057439   -0.354438
C      -0.324401   -0.319121    0.310419
C       0.872095   -0.476160    1.281517
O       0.504459   -0.358613    2.648429
C       0.087329    0.921124    3.057136
C       1.533675   -1.840801    1.114514
C       2.444735   -2.349650    2.253513
C       1.357627   -3.424947    2.443926
O       0.604428   -2.930831    1.315137
H       0.456392    1.280333   -0.949250
H      -1.298443    1.098142   -1.028134
H      -0.550208    1.862866    0.377590
H      -1.234013   -0.559782    0.870087
H      -0.249039   -1.084027   -0.470106
H       1.635950    0.289281    1.047865
H       0.824052    1.695961    2.790868
H      -0.883447    1.205892    2.627091
H      -0.014614    0.893458    4.145457
H       1.976082   -1.883291    0.109193
H       3.414644   -2.726368    1.925597
H       2.570429   -1.656301    3.083390
H       1.674156   -4.464428    2.296544
H       0.784581   -3.349559    3.375119
