17

C      -0.016381   -1.241969   -0.004255
C      -0.034280   -0.040330    0.002353
C      -0.020200    1.417102    0.010449
C       1.406562    2.001861   -0.000882
C       1.405974    3.532334    0.007720
C       2.836096    4.107893   -0.003580
C       2.854400    5.569050    0.004705
N       2.849068    6.724569    0.010866
H      -0.015688   -2.303692   -0.009859
H      -0.576063    1.793486   -0.858479
H      -0.558084    1.783596    0.894779
H       1.954013    1.621290    0.869497
H       1.936042    1.631142   -0.886495
H       0.860707    3.914632   -0.862783
H       0.878595    3.904763    0.893388
H       3.396838    3.748816    0.867509
H       3.378924    3.758785   -0.889956
