19

C      -0.154886    1.523201   -0.116530
C       0.021846    0.033677    0.077916
C       1.339425   -0.677169   -0.104345
O       2.524740    0.094437   -0.175388
C       2.754163    0.643363    1.099609
C       3.058262   -0.290773    2.257383
C       1.665670    0.284677    2.057504
O       1.164894    1.247780    2.934180
C       0.728706   -0.597838    1.273212
H       0.728445    2.086284    0.186217
H      -0.348590    1.747400   -1.170938
H      -1.001333    1.894422    0.469660
H      -0.825872   -0.557297   -0.263273
H       1.408759   -1.593429   -0.679598
H       3.201474    1.629831    1.074351
H       3.230867   -1.343030    2.058495
H       3.646132    0.140881    3.060694
H       0.901363    0.801849    3.746739
H       0.291556   -1.467049    1.756843
