15

C       0.021970    1.456441    0.018608
N       0.004988    0.012425    0.019834
C      -0.060942   -0.826508   -1.083942
N      -0.061524   -2.104929   -0.830276
C       0.009969   -2.158661    0.558487
C       0.056271   -3.016547    1.619699
O       0.124006   -2.283697    2.767422
C       0.122638   -0.945615    2.463816
C       0.052656   -0.836140    1.110158
H       0.941409    1.840332    0.474684
H      -0.028001    1.812555   -1.012636
H      -0.835419    1.861237    0.567911
H      -0.107863   -0.396496   -2.076910
H       0.051728   -4.085315    1.741948
H       0.172460   -0.271860    3.299926
