14

N      -0.040186    1.387338   -0.037757
C       0.036989    0.009658   -0.103431
O       1.100681   -0.576511   -0.259971
C      -1.215743   -0.728486   -0.027129
C      -1.388872   -2.103648    0.088595
N      -0.430028   -3.062560    0.230678
N      -2.724513   -2.379430    0.101321
N      -3.389393   -1.256678   -0.009921
N      -2.507341   -0.262785   -0.070191
H       0.858383    1.842110    0.042589
H      -0.772417    1.803477    0.517363
H       0.487502   -2.779814   -0.084336
H      -0.718244   -4.000972    0.002264
H      -2.839437    0.669205   -0.259769
