19

O       0.161777    1.376664    0.082298
C       0.000142   -0.001295   -0.118945
C      -1.452383   -0.397332    0.135750
O      -2.316542    0.417721    0.336761
C      -1.719521   -1.899500    0.119624
C      -3.204596   -2.246203    0.018138
C      -3.454322   -3.764893    0.098947
C      -4.865918   -4.113650   -0.006837
C      -6.035278   -4.376112   -0.097283
H       1.075212    1.602629   -0.115376
H       0.240636   -0.312877   -1.151546
H       0.640569   -0.610556    0.542999
H      -1.143835   -2.360936   -0.694596
H      -1.291621   -2.312917    1.045611
H      -3.751392   -1.737135    0.815851
H      -3.611727   -1.859999   -0.921658
H      -2.893755   -4.274988   -0.696218
H      -3.053385   -4.152758    1.045245
H      -7.066536   -4.615876   -0.175294
