12

O      -0.061656   -0.008816    0.003373
N      -0.025318    1.204727    0.006928
O       0.983744    1.900453    0.002738
C      -1.323158    1.943780    0.017398
C      -1.314718    3.335878    0.020527
N      -2.465911    4.010773    0.029823
C      -3.583503    3.282884    0.035763
C      -3.562488    1.886329    0.032477
N      -2.415472    1.209653    0.023124
H      -0.386000    3.892341    0.015532
H      -4.525303    3.824485    0.043357
H      -4.481127    1.307050    0.037423
