18

N      -0.075445    1.339165    0.112039
C       0.060585   -0.000261   -0.116498
O       1.133182   -0.513237   -0.370026
C      -1.238516   -0.798928   -0.024215
C      -0.975506   -2.299742    0.048240
N      -2.233875   -3.039356   -0.024477
C      -2.029358   -4.482774    0.005137
C      -3.308960   -5.196834   -0.022671
N      -4.318137   -5.758477   -0.019842
H       0.727246    1.927385   -0.042695
H      -0.975877    1.774667    0.210768
H      -1.818758   -0.460558    0.844002
H      -1.850706   -0.582800   -0.908714
H      -0.349888   -2.588487   -0.802011
H      -0.387778   -2.531977    0.953320
H      -2.839558   -2.774821    0.746749
H      -1.450594   -4.774087   -0.880209
H      -1.458469   -4.842773    0.881161
