19

C      -0.529780    1.384777    0.113645
C       0.055332   -0.014843   -0.003889
C       1.347215   -0.229871   -0.859831
C       2.047945   -0.840951    0.361627
O       2.723250    0.192741    1.151839
C       1.644725    0.323446    2.004619
N       1.515050    0.975452    3.069620
C       0.762003   -0.650291    1.244721
N       0.026502   -1.665696    1.935570
H       0.227766    2.110737    0.423962
H      -0.937945    1.712540   -0.848419
H      -1.339982    1.418018    0.849859
H      -0.718822   -0.720085   -0.323846
H       1.211259   -0.926097   -1.690256
H       1.831681    0.676846   -1.229718
H       2.646611   -1.747936    0.292408
H       2.366194    1.491553    3.300237
H       0.352095   -1.762061    2.892435
H      -0.956832   -1.419336    1.982577
