16

O       0.049613   -0.032486   -0.427283
C      -0.023523    1.116745   -0.126084
C      -1.131825    2.080500    0.324836
N      -0.134123    3.176821    0.506748
C       0.490305    3.156813    1.873178
C       1.718228    2.356864    1.373651
C       1.007817    2.284499   -0.010032
C       1.732663    2.636549   -1.200284
C       2.339785    2.906344   -2.202862
H      -1.842770    2.304765   -0.478684
H      -1.695186    1.791286    1.218622
H       0.710449    4.165303    2.230884
H      -0.122357    2.649433    2.626183
H       2.644187    2.930926    1.331599
H       1.917337    1.393594    1.846557
H       2.873914    3.148874   -3.088365
