14

N      -0.046045    1.221357    0.007544
C      -0.024698   -0.031130    0.000579
C      -1.260119   -0.941411    0.002600
N      -0.625298   -2.237454   -0.008003
C      -0.890366   -3.600427   -0.014126
C       0.348503   -4.185819   -0.024185
N       1.374494   -3.240359   -0.024986
C       0.721708   -2.122928   -0.015085
O       1.122996   -0.816971   -0.010247
H       0.895270    1.615267    0.004352
H      -1.867221   -0.765813    0.895918
H      -1.877217   -0.756188   -0.881882
H      -1.889522   -3.999890   -0.010667
H       0.576694   -5.240094   -0.031166
