19

O       0.035851   -0.001417    0.065168
C       0.070716    1.184625    0.206408
O       1.077357    1.942155   -0.267868
C       0.993521    3.345899   -0.099446
C       0.622463    4.043617    1.244035
C       1.377569    5.224863    0.566245
C       2.313099    4.145067   -0.054740
C       0.449235    5.568584   -0.620025
C       0.154527    4.122149   -1.133238
H      -0.699263    1.770427    0.741319
H      -0.433893    4.181793    1.491030
H       1.166815    3.623915    2.092399
H       1.775366    6.050090    1.153679
H       3.020235    3.729547    0.665312
H       2.810141    4.366222   -1.002862
H      -0.455306    6.093116   -0.300564
H       0.949636    6.185537   -1.371049
H       0.505802    3.941500   -2.152184
H      -0.905680    3.856874   -1.086708
