17

N      -0.005741    1.474297    0.170651
C      -0.037646    0.033881   -0.025914
C      -1.462028   -0.518274   -0.027135
C      -1.408246   -2.035176   -0.207896
C      -0.671789   -2.425294   -1.459950
N      -0.983205   -3.427790   -2.155579
O       0.412037   -1.634754   -1.836366
C       0.733252   -0.419178   -1.274848
O       1.614092    0.217414   -1.776042
H       0.950721    1.797118    0.046874
H      -0.535915    1.925326   -0.571690
H       0.497844   -0.428450    0.818224
H      -1.954194   -0.251513    0.910871
H      -2.039940   -0.057807   -0.839166
H      -0.886371   -2.483676    0.648537
H      -2.397635   -2.491703   -0.253344
H      -0.346108   -3.528623   -2.948237
