19

C      -0.274535    1.513952    0.117519
C      -0.032116    0.014026   -0.004450
O      -1.212455   -0.675435   -0.353938
C       1.143560   -0.362914   -0.945735
C       2.067311   -0.561997    0.286002
O       2.815420    0.589203    0.647842
C       0.799219   -0.627153    1.170292
C       0.813411   -0.012337    2.543051
O      -0.156129    0.493225    3.056092
H       0.657998    2.042753    0.328922
H      -0.690708    1.888638   -0.823160
H      -0.973622    1.729648    0.930873
H      -1.918348   -0.363368    0.223438
H       0.933849   -1.306687   -1.454791
H       1.456994    0.388294   -1.676096
H       2.706804   -1.452786    0.273327
H       3.454229    0.765176   -0.050444
H       0.474285   -1.669347    1.273923
H       1.783903   -0.065428    3.081906
