16

C       0.091420    1.671783    0.063169
C       1.599034    1.448826   -0.111340
O       2.026199    0.624329    0.984454
C       1.433471   -0.010654   -0.152226
C      -0.089661    0.115936    0.060755
C      -0.757575   -0.636255    1.231857
N      -1.750330   -1.526542    0.604876
C      -1.701854   -1.267444   -0.631971
O      -0.831566   -0.330483   -1.095767
H      -0.211835    2.207066    0.966274
H      -0.387176    2.107442   -0.816694
H       2.342875    2.088680   -0.569356
H       1.986704   -0.794867   -0.656188
H      -0.032307   -1.213789    1.812706
H      -1.261378    0.043242    1.927985
H      -2.310334   -1.728117   -1.402106
