23

C       0.284423    0.609691   -1.249420
O      -0.103048    0.204079    0.046100
C      -1.342013   -0.487315    0.096970
C      -1.254422   -1.786986   -0.587005
C      -1.167135   -2.838419   -1.164448
C      -1.764854   -0.607197    1.590318
C      -1.890995    0.814302    2.167777
C      -3.128258   -1.314367    1.669774
C      -0.708125   -1.402350    2.375579
H       1.225901    1.153415   -1.143077
H       0.437076   -0.248323   -1.917606
H      -0.464465    1.277579   -1.703156
H      -2.111513    0.113666   -0.420027
H      -1.094014   -3.769748   -1.670052
H      -2.651465    1.393311    1.630735
H      -2.189976    0.769258    3.220066
H      -0.943799    1.352721    2.099264
H      -3.076088   -2.333568    1.277634
H      -3.462324   -1.367453    2.710963
H      -3.893932   -0.771855    1.103301
H       0.269230   -0.917759    2.314022
H      -0.993307   -1.471860    3.430433
H      -0.609098   -2.418679    1.982733
