16

O      -0.068971   -0.073639    0.013738
C      -0.052951    1.140271    0.050367
C      -1.334832    1.965890   -0.017556
N      -1.150915    3.236130    0.674145
C      -0.083357    4.044526    0.110547
C       1.210996    3.258548    0.059323
C       1.202383    1.908724    0.081968
C       2.411071    4.007445   -0.035896
C       3.405326    4.683697   -0.117213
H      -1.595746    2.070755   -1.090669
H      -2.134685    1.393395    0.457617
H      -2.016441    3.762428    0.690412
H      -0.288980    4.412917   -0.915804
H       0.062764    4.932173    0.734451
H       2.122693    1.335362    0.063132
H       4.292824    5.262999   -0.189753
