15

O       0.007172    0.090275   -0.437931
C       0.005947    1.216954   -0.027693
C      -1.230877    2.104434    0.190623
N      -0.819615    3.303836    0.924179
C      -0.213658    3.022681    2.221891
C       0.677077    3.266598    1.046309
C       1.247041    2.042157    0.353748
C       1.372506    4.521758    0.906405
N       1.965052    5.508457    0.798985
H      -1.632679    2.396899   -0.786672
H      -2.014860    1.556999    0.721512
H      -0.341792    3.802361    2.965479
H      -0.243036    2.004720    2.610132
H       1.924777    1.452822    0.975501
H       1.786850    2.311607   -0.560353
