14

C      -0.029838    1.506603   -0.012321
C      -0.002122    0.004289   -0.007662
N      -0.024075   -0.645011   -1.179340
C       0.000469   -1.958511   -1.169997
F      -0.023599   -2.552311   -2.361753
C       0.047927   -2.755973   -0.032008
C       0.071251   -2.097652    1.190916
C       0.045703   -0.712572    1.187049
F       0.066891   -0.040432    2.345063
H       0.857237    1.917987    0.481001
H      -0.067391    1.865505   -1.040990
H      -0.900027    1.885749    0.534026
H       0.065350   -3.835222   -0.110770
H       0.108308   -2.635213    2.131157
