19

C       0.209612    1.577736    0.104310
C       0.096769    0.068365   -0.001484
C       0.749310   -0.567849   -1.247370
C       1.209855   -1.943435   -0.738649
C       2.492949   -1.949870    0.097559
C       1.166669   -1.821502    0.778448
O       0.767758   -0.528161    1.124825
C       0.806345   -3.130451   -1.426379
C       0.465359   -4.124849   -2.012471
H       1.259029    1.887074    0.076243
H      -0.319011    2.057464   -0.725357
H      -0.228772    1.931757    1.041364
H      -0.964210   -0.226888    0.032903
H       0.039381   -0.668552   -2.070569
H       1.594655    0.033238   -1.600031
H       3.016526   -2.896447    0.171738
H       3.119928   -1.065506    0.056815
H       0.775490   -2.616677    1.405126
H       0.165961   -5.003495   -2.527243
