18

C       0.030453    1.488939   -0.075937
N       0.045888    0.034222    0.040558
C       0.846464   -0.404697    1.178033
C      -1.274728   -0.538257   -0.009870
C      -1.426022   -2.088572   -0.159821
N      -2.256658   -2.059853    1.044813
C      -2.127342   -0.715096    1.301022
O      -2.516363   -0.009697    2.194269
H       1.058976    1.854525   -0.159861
H      -0.506934    1.780666   -0.983785
H      -0.443941    1.991805    0.783270
H       0.452362   -0.053740    2.146723
H       0.901196   -1.496681    1.207452
H       1.866928   -0.026450    1.065142
H      -1.855601   -0.008560   -0.769991
H      -1.946052   -2.420704   -1.063763
H      -0.491726   -2.646669   -0.051098
H      -2.750500   -2.789086    1.537003
