18

O       0.011267    1.296352    0.379438
C       0.002825   -0.016662   -0.155360
C      -1.391004   -0.555929   -0.270980
C      -2.584508    0.111667   -0.941472
C      -3.408124   -0.732645    0.041459
C      -3.182069   -2.206757   -0.380277
O      -3.375490   -2.602914   -1.715659
C      -1.755099   -1.967757    0.051295
N      -2.173678   -0.856463    0.989121
H      -0.471655    1.249046    1.213152
H       0.468644    0.049776   -1.144907
H       0.612195   -0.704161    0.452591
H      -2.611684    1.174105   -0.690763
H      -2.749648   -0.041712   -2.010861
H      -4.360127   -0.393465    0.446020
H      -3.676784   -2.884931    0.326745
H      -4.292016   -2.873976   -1.827319
H      -1.017385   -2.705666    0.345231
