20

C       0.071575    1.372957   -0.055778
O      -0.001811   -0.026907    0.095568
C      -1.317523   -0.540720   -0.015658
C      -1.192804   -2.057236    0.047148
O      -0.312357   -2.491986   -0.968350
C      -0.916160   -2.743396    1.420944
N      -2.115403   -3.650067    1.272438
C      -3.279090   -2.751765    1.225639
C      -2.465740   -2.896045    0.000648
H       1.122137    1.657830    0.037890
H      -0.301149    1.694128   -1.040270
H      -0.509269    1.893763    0.720300
H      -1.955070   -0.149634    0.790999
H      -1.765891   -0.247759   -0.979393
H       0.430354   -1.874290   -0.949981
H       0.003160   -3.329088    1.394648
H      -0.942816   -2.122828    2.323183
H      -4.226723   -3.281311    1.254751
H      -3.263493   -1.828174    1.800731
H      -2.810994   -3.404315   -0.893488
