20

C      -0.283503    1.463665    0.019552
C       0.043380   -0.031009    0.059074
C       0.908397   -0.465847    1.266647
C       2.294019    0.181038    1.263895
O       0.277671   -0.089793    2.486634
C       1.045224   -1.988249    1.231886
C       1.222609   -2.778957    2.452019
O      -0.060175   -2.699363    1.804808
H       0.605672    2.072340   -0.171374
H      -1.004878    1.679906   -0.774142
H      -0.713029    1.783995    0.972264
H      -0.889693   -0.607738    0.101602
H       0.548183   -0.334215   -0.867485
H       2.209427    1.267787    1.335638
H       2.875844   -0.170043    2.120158
H       2.838431   -0.063385    0.346320
H      -0.458755   -0.707187    2.600722
H       1.400936   -2.404717    0.288652
H       1.702240   -3.754354    2.399680
H       1.282862   -2.266237    3.408462
