20

C      -0.303961    1.445285    0.154581
N       0.033980    0.023891    0.197550
C       1.315866   -0.481877   -0.276628
C       2.492094    0.469909   -0.383841
O       2.557117    1.173476    0.853049
C       1.930891    0.398880    1.873340
C       0.963863   -0.545488    1.174691
C       0.473856   -1.773628    1.899145
O      -0.421304   -1.436090    2.949846
H       0.522127    2.128339    0.383714
H      -0.684536    1.676318   -0.845459
H      -1.116599    1.629526    0.864593
H       1.284294   -1.342560   -0.940603
H       3.411678   -0.108165   -0.570650
H       2.393947    1.215974   -1.180886
H       2.669749   -0.190125    2.439633
H       1.449757    1.094386    2.568832
H       0.005196   -2.454874    1.175437
H       1.309186   -2.301149    2.372777
H      -1.179751   -1.009857    2.535158
