19

O       0.067486    1.470415    0.041120
C      -0.002284    0.055985    0.154315
C      -1.423061   -0.496108    0.074379
C      -2.517676    0.250422    0.794934
C      -2.463384    0.269267   -0.713142
C      -1.533494   -1.993771    0.038710
N      -0.577906   -2.742976   -0.796002
C      -0.565224   -2.932441    0.665758
H       0.007592    1.692985   -0.892211
H       0.618553   -0.439353   -0.603258
H       0.423214   -0.178477    1.136759
H      -3.301964   -0.321876    1.279747
H      -2.232357    1.162295    1.306983
H      -2.174446    1.201736   -1.184402
H      -3.200331   -0.301053   -1.268838
H      -2.566939   -2.340673    0.023817
H      -1.039266   -3.524638   -1.252167
H       0.325868   -2.561355    1.162762
H      -0.952603   -3.859656    1.080581
