19

C       0.102563    1.579631    0.057498
C       0.048756    0.048942   -0.016936
C       0.642796   -0.487895   -1.283149
O       2.047247   -0.169910   -1.603652
C       1.613750   -1.011759   -2.718303
C       0.835153   -1.967884   -1.767211
C      -0.441161   -2.374125   -2.483900
O      -0.791170   -1.143909   -3.162037
C       0.246942   -0.276909   -2.783549
H       1.132446    1.932650   -0.041693
H      -0.487095    2.034693   -0.744676
H      -0.294452    1.937404    1.011610
H       0.583890   -0.389879    0.834387
H      -0.988785   -0.302293    0.047374
H       2.335878   -1.243723   -3.500216
H       1.374834   -2.678671   -1.143781
H      -0.295546   -3.173155   -3.220620
H      -1.251531   -2.666701   -1.805523
H       0.145123    0.713167   -3.222421
