18

C       0.098146    1.527235    0.096090
C      -0.014750    0.040423   -0.043027
C      -0.894425   -0.832979    0.792213
N       0.554677   -0.987889    0.951225
C       0.960400   -1.840516   -0.202011
C       2.253195   -2.598462   -0.255054
C       0.941051   -3.340442   -0.239313
C       0.512099   -0.792366   -1.189037
O       0.694867   -0.591447   -2.357336
H       1.091860    1.875423   -0.200790
H      -0.637983    2.023459   -0.545083
H      -0.083947    1.835650    1.129159
H      -1.380182   -0.348427    1.635058
H      -1.462689   -1.642180    0.339574
H       2.812527   -2.546484   -1.182987
H       2.846863   -2.600117    0.651955
H       0.659489   -3.844758    0.679205
H       0.600108   -3.817574   -1.151839
