20

O       0.569951    0.734167   -0.758688
C       0.105928   -0.303578    0.065905
C       0.038798   -0.068725    1.612076
C      -1.360098   -0.702140    1.599919
C      -1.859985   -1.772385    2.490110
N      -2.494261   -0.434448    2.475278
C      -1.401252   -0.621003    0.088137
C      -2.444220    0.119596   -0.704273
C      -2.249187   -1.366637   -0.891142
H       0.006732    1.501177   -0.605426
H       0.715010   -1.176025   -0.187693
H       0.808907   -0.541448    2.226472
H       0.007988    1.002886    1.840841
H      -2.479282   -2.572830    2.093521
H      -1.250387   -2.053105    3.346035
H      -2.197545    0.103680    3.286308
H      -3.322176    0.457581   -0.164687
H      -2.105355    0.774036   -1.501744
H      -1.783104   -1.707887   -1.810262
H      -3.011841   -2.032416   -0.498635
