20

C      -0.038031    1.557630    0.081320
C       1.282663    0.828366    0.019369
C       2.228584    0.764314    1.207011
C       2.714168   -0.659586    1.520166
O       1.778378   -1.436930    2.245482
C       0.646218   -1.903928    1.534018
C      -0.387498   -0.809855    1.224533
C      -0.012795    0.048849    0.028043
H      -0.308553    2.017723    1.027310
H      -0.375042    2.108001   -0.790630
H       1.791345    0.859481   -0.941099
H       3.100391    1.401998    1.012156
H       1.754152    1.159483    2.112383
H       3.001077   -1.174571    0.587517
H       3.601387   -0.615578    2.161320
H       0.957683   -2.404141    0.601207
H       0.198158   -2.663390    2.184120
H      -1.361087   -1.282590    1.042043
H      -0.505551   -0.200242    2.127517
H      -0.287943   -0.391696   -0.927173
