19

C      -0.036768    1.559697   -0.031222
C       0.010013    0.066243    0.275417
O       0.557067   -0.182428    1.581599
C      -1.349488   -0.588543    0.122209
N      -1.656960   -1.124190   -1.211823
C      -1.546196   -2.050844   -0.078965
C      -0.466044   -3.122113   -0.156623
N       0.523146   -3.011479    0.769857
O      -0.554438   -4.037402   -0.950692
H       0.954240    2.005623    0.084888
H      -0.380024    1.724411   -1.056868
H      -0.728801    2.078182    0.644437
H       0.702787   -0.426309   -0.411989
H      -0.038637    0.201057    2.235200
H      -2.149844   -0.072481    0.657766
H      -2.629953   -0.973098   -1.461041
H      -2.475550   -2.463925    0.311430
H       0.632105   -2.174474    1.329219
H       1.268053   -3.689231    0.735322
