16

C      -0.112068    1.544187   -0.296978
C      -0.317927    0.050958   -0.539662
C      -1.256077   -0.581292    0.467703
O      -1.714920   -0.005642    1.422062
C      -1.613919   -2.048906    0.244356
C      -2.236157   -2.469604   -1.039339
O      -0.880772   -2.765410   -0.753405
C      -1.944454   -2.798884    1.441758
N      -2.198172   -3.410520    2.387774
H       0.594819    1.953466   -1.023151
H      -1.054573    2.090848   -0.385344
H       0.276545    1.724699    0.707842
H      -0.687799   -0.146289   -1.553533
H       0.628754   -0.503353   -0.483816
H      -2.920900   -3.314461   -1.025659
H      -2.410704   -1.719926   -1.808592
