18

O       0.037713    1.511148   -0.210366
C       0.084897    0.095929   -0.131143
C      -1.345124   -0.398561    0.065682
C      -1.428550   -1.911649    0.161448
N      -0.799393   -2.612536    1.353761
C      -1.592291   -2.238451    2.518616
C      -2.125167   -3.317646    1.635084
C      -2.748479   -2.676228    0.428540
O      -3.758352   -2.843601   -0.190441
H       0.937382    1.838477   -0.299889
H       0.504472   -0.345783   -1.049990
H       0.712642   -0.241388    0.707744
H      -1.765596    0.088070    0.951391
H      -1.957139   -0.075183   -0.784054
H      -0.985873   -2.364193   -0.735813
H      -1.159510   -2.560289    3.460954
H      -2.092854   -1.275170    2.558806
H      -2.199445   -4.352552    1.948140
