16

C      -0.024513    1.483076   -0.070327
C      -0.020927   -0.009836    0.011727
N      -0.024493   -0.738565   -1.085788
N      -0.016482   -2.046327   -0.640780
C      -0.011312   -2.145591    0.700508
N      -0.061358   -3.299429    1.417832
C      -0.009246   -0.826660    1.188193
C       0.054177   -0.499827    2.582067
O       0.088113   -1.333081    3.484105
H       0.858521    1.912473    0.415327
H      -0.029947    1.793027   -1.117033
H      -0.905327    1.907276    0.423595
H      -0.050691   -2.787363   -1.319557
H       0.340947   -4.134810    1.023311
H       0.097467   -3.137296    2.407884
H       0.081733    0.582159    2.827789
