17

C      -0.358455   -1.114240   -0.684821
C      -0.163728   -0.001130   -0.273174
C       0.084635    1.336935    0.240974
C      -0.367799    1.558736    1.704162
C       0.344548    2.861973    2.127447
C       1.602212    2.980133    1.213486
C       1.577902    1.739317    0.294667
H      -0.534062   -2.094288   -1.053065
H      -0.443579    2.061525   -0.395525
H      -1.454986    1.606677    1.803884
H      -0.022155    0.712284    2.307448
H      -0.314901    3.722573    1.978314
H       0.604102    2.848477    3.189217
H       1.552748    3.896500    0.617141
H       2.529634    3.032818    1.789688
H       2.145022    0.914227    0.739134
H       1.997733    1.925591   -0.696934
