13

C      -0.033281    1.522117    0.057260
C      -0.009656    0.023537    0.009854
N      -0.045816   -0.543482   -1.150877
O      -0.024700   -1.920896   -1.209710
C       0.033684   -2.765338   -0.093200
O       0.046232   -3.947767   -0.290128
C       0.073217   -2.095303    1.194900
C       0.051569   -0.755383    1.224316
F       0.084950   -0.075034    2.362400
H       0.862034    1.908247    0.554951
H      -0.080177    1.916130   -0.958251
H      -0.899064    1.878280    0.624661
H       0.118870   -2.704574    2.087453
