14

O      -0.155743   -0.002986    0.001820
C      -0.054792    1.197773    0.010092
N       1.134759    1.894771    0.003086
C       1.249819    3.362902    0.012985
C       2.793685    3.555608   -0.002938
N       3.391010    2.214999   -0.019566
C       2.435692    1.368860   -0.015262
C       2.686052   -0.045203   -0.028585
N       2.978579   -1.162493   -0.040082
H      -0.920947    1.886140    0.024862
H       0.762374    3.793504   -0.865994
H       0.782414    3.779956    0.909215
H       3.135681    4.109429   -0.882591
H       3.155423    4.096421    0.876905
