21

O       0.061703    1.443158    0.044012
C       0.088765    0.024601    0.056160
C      -1.347958   -0.470009   -0.060029
C      -1.435656   -1.999605   -0.081286
C      -2.880821   -2.548659   -0.049584
C      -3.694333   -2.177813   -1.313846
O      -5.008099   -2.688401   -1.281296
C      -2.885469   -4.003009    0.106748
C      -2.908133   -5.203777    0.184998
H       0.965265    1.763003    0.119915
H       0.686639   -0.371069   -0.781627
H       0.539599   -0.359581    0.985999
H      -1.921987   -0.069214    0.784647
H      -1.780602   -0.035193   -0.967517
H      -0.926853   -2.396203   -0.969163
H      -0.899725   -2.407356    0.783748
H      -3.405309   -2.111634    0.811294
H      -3.791670   -1.091199   -1.380489
H      -3.141451   -2.523266   -2.202770
H      -4.937359   -3.641980   -1.150409
H      -2.915275   -6.261388    0.282763
