18

C       0.063717    1.552158   -0.003851
C       0.002966    0.028767    0.079051
O       0.706476   -0.477119    1.199346
C      -1.454879   -0.519519    0.051539
C      -1.460530   -2.069543   -0.036484
C      -2.796650   -2.638605   -0.127062
C      -3.909217   -3.084294   -0.208653
C      -2.164246   -0.057051    1.247722
N      -2.655162    0.330690    2.220038
H       1.106397    1.878582    0.015629
H      -0.398063    1.917860   -0.926576
H      -0.459727    2.012312    0.841400
H       0.511811   -0.402415   -0.790957
H       0.349112   -0.055581    1.991106
H      -1.970290   -0.114684   -0.826854
H      -0.874315   -2.351701   -0.919548
H      -0.924569   -2.465196    0.831888
H      -4.889558   -3.487973   -0.269593
