23

C      -0.567333    0.906564   -1.636945
C       0.342387   -0.177214   -1.079438
C       1.874234   -0.076040   -1.308927
C       2.091702   -0.649151    0.117154
C       3.237509   -0.119922    0.965695
C       0.616742   -0.276762    0.450252
C       0.278624    0.892864    1.405853
O      -0.525165    0.037974    2.243762
C      -0.259393   -1.103491    1.405024
H      -0.223592    1.907020   -1.352661
H      -0.588966    0.865909   -2.731508
H      -1.597537    0.793255   -1.280717
H      -0.012042   -1.158437   -1.420718
H       2.305922   -0.618517   -2.153971
H       2.196509    0.970357   -1.367363
H       2.156771   -1.743549    0.062826
H       3.232972    0.974493    1.011747
H       3.188640   -0.497981    1.993188
H       4.201648   -0.426523    0.545432
H       1.123377    1.323406    1.957965
H      -0.312694    1.710830    0.975647
H      -1.178496   -1.515825    0.964840
H       0.261071   -1.904202    1.949551
