15

O       0.078237   -0.059776   -0.074021
C      -0.001255    1.119233    0.110255
O      -1.196622    1.697511    0.411098
C      -1.317823    3.086025    0.809773
C      -0.110474    3.598812    1.561139
C       1.043252    3.136543    1.116156
C       2.477403    2.824795    1.456458
O       2.439474    1.703534    0.521883
C       1.145295    2.114791    0.028869
H      -1.527941    3.683095   -0.087618
H      -2.211882    3.110554    1.437075
H      -0.245521    4.227858    2.433303
H       3.218356    3.574377    1.150078
H       2.682928    2.506669    2.484301
H       1.208105    2.498740   -1.001327
