20

C       0.064100    1.532876    0.013086
C       0.007743    0.002048   -0.016993
C       0.709343   -0.624644   -1.230091
N       2.143368   -0.306920   -1.361685
C       1.734583   -1.597355   -0.766635
C       1.710606   -1.593086    0.748257
O       2.059688   -0.342980    1.348903
C       0.665342   -0.658965    1.211271
C      -0.106300   -0.787453    2.497206
H       1.105756    1.859847    0.028431
H      -0.421705    1.960568   -0.869797
H      -0.442305    1.932812    0.897739
H      -1.040134   -0.326061   -0.040573
H       0.131178   -0.786265   -2.135378
H       2.427391   -0.467784   -2.325790
H       1.948297   -2.523376   -1.289207
H       2.007214   -2.482389    1.299602
H      -0.376524    0.199113    2.890489
H      -1.032071   -1.352755    2.345727
H       0.497087   -1.295937    3.253424
