18

C      -0.133342    1.522430    0.007122
C      -0.028084    0.021652    0.007663
C      -0.101530   -0.726869   -1.129027
N       0.032902   -2.082841   -1.181368
C       0.623296   -2.768534   -0.035976
C      -0.001132   -2.203782    1.236888
O       0.580871   -2.773238    2.372817
C       0.154870   -0.673936    1.266511
O       0.378870   -0.136727    2.345151
H       0.771581    1.979940    0.420866
H      -0.280717    1.910558   -1.005009
H      -0.966447    1.864870    0.630871
H      -0.287777   -0.250899   -2.088587
H       0.203178   -2.483482   -2.089440
H       0.434617   -3.841905   -0.113819
H       1.713220   -2.610146    0.004247
H      -1.089356   -2.403851    1.201383
H       0.705550   -2.019127    2.975737
