19

C      -0.063297    1.547067    0.039700
C       0.035858    0.048696    0.001113
C      -0.846796   -0.855314    0.818203
C       0.639824   -0.937435    1.011182
C       1.265386   -1.783247   -0.114968
C       0.797004   -3.146249   -0.276893
C       0.342630   -4.244178   -0.473795
C       0.677640   -0.732935   -1.155366
O      -0.106481   -1.194768   -2.217186
H       0.887762    2.018033   -0.235019
H      -0.826084    1.907241   -0.660462
H      -0.336877    1.903010    1.038438
H      -1.390613   -0.355315    1.613612
H      -1.388761   -1.686753    0.374664
H       1.121293   -0.735351    1.959974
H       2.357986   -1.754599   -0.107892
H      -0.023215   -5.230681   -0.619047
H       1.494334   -0.154627   -1.598393
H      -0.558524   -1.996874   -1.927708
