20

C      -0.219189    1.584717   -0.042315
C      -0.038457    0.092524   -0.044280
C       0.715602   -0.681677   -1.131606
C      -0.061189   -1.961837   -0.712004
C       0.628242   -2.719213    0.431211
C       1.803515   -2.125401    1.134405
N       0.448230   -1.930165    1.665992
C      -0.283570   -0.741435    1.231377
C      -1.092138   -1.020837    0.013093
H       0.720157    2.098245    0.196261
H      -0.551083    1.942107   -1.024615
H      -0.964441    1.899674    0.695388
H       0.371563   -0.338235   -2.113780
H       1.809656   -0.705006   -1.143925
H      -0.411232   -2.608019   -1.515421
H       0.446590   -3.788924    0.513764
H       2.435713   -2.766342    1.744854
H       2.317004   -1.274147    0.704021
H      -0.724414   -0.176202    2.045581
H      -2.169722   -0.993196   -0.091076
