17

C       0.247052    1.500163   -0.312868
C       0.080099    0.048322    0.077299
O       0.867630   -0.865685   -0.746209
C       1.262366   -1.642782    0.406096
C       0.694077   -0.538214    1.363095
C       2.132434   -0.063211    1.710220
O       2.415510   -0.225783    3.084181
C       2.677359   -1.257388    0.872016
O       3.757763   -1.768428    0.826997
H       1.292464    1.816454   -0.285107
H      -0.123376    1.652976   -1.331387
H      -0.333186    2.141328    0.359131
H      -0.980395   -0.232032    0.002043
H       0.965853   -2.693484    0.350559
H       0.061221   -0.736897    2.224413
H       2.403515    0.938622    1.353248
H       3.361882   -0.396043    3.163461
