17

C       0.114344    1.491291   -0.143538
C      -0.068539    0.016893    0.098165
C      -1.393120   -0.664781   -0.274452
C      -1.522462   -1.870121    0.657198
N      -0.500966   -2.916663    0.473837
C      -0.334260   -1.921702    1.554511
C       0.565251   -0.759817    1.185071
O       1.081402   -0.804980   -0.147003
H       1.096857    1.815338    0.208742
H       0.046900    1.720357   -1.213107
H      -0.656160    2.073807    0.372757
H      -2.224539    0.027432   -0.100078
H      -1.408662   -0.951812   -1.330545
H      -2.510546   -2.164143    0.998013
H      -0.844590   -3.783764    0.881998
H      -0.391776   -2.235945    2.590849
H       1.220109   -0.319645    1.933368
