21

C      -0.139067    1.363539   -0.476017
O      -0.238977    0.007417   -0.839941
C       0.934062   -0.723776   -0.550474
C       0.691351   -2.158617   -0.891663
C      -0.490707   -3.050457   -0.488460
C      -0.217196   -3.904343   -1.775610
C       0.945899   -2.952908   -2.112729
C       1.519730   -2.619354   -3.450341
O       1.843468   -3.009417   -0.984789
H       0.046688    1.484154    0.603100
H       0.670173    1.874870   -1.021124
H      -1.089627    1.840262   -0.726871
H       1.796482   -0.348088   -1.124862
H       1.192882   -0.630742    0.519534
H      -0.381079   -3.557489    0.473437
H      -1.446026   -2.524231   -0.525130
H       0.072485   -4.946857   -1.623279
H      -1.037802   -3.853783   -2.495596
H       0.726657   -2.349581   -4.154977
H       2.220851   -1.783943   -3.373933
H       2.061300   -3.477706   -3.864617
