21

C      -0.118628    1.514599   -0.226885
C       0.127139    0.036789    0.032342
O       0.539852   -0.546517   -1.199793
C       0.687666   -1.981820   -1.252079
C       1.460461   -2.558365   -0.055294
C      -0.726405   -2.604937   -1.353997
O      -1.484266   -1.997720   -2.370310
C       1.437149   -2.239718   -2.487839
C       2.065932   -2.493052   -3.478943
H       0.786842    1.988880   -0.615022
H      -0.918788    1.653654   -0.959605
H      -0.407010    2.018316    0.700573
H       0.906917   -0.088092    0.795774
H      -0.787388   -0.440228    0.413290
H       0.897597   -2.449188    0.875546
H       1.643664   -3.622937   -0.220520
H       2.426168   -2.058030    0.049336
H      -0.639524   -3.671611   -1.583628
H      -1.218961   -2.515927   -0.371060
H      -1.219719   -1.068292   -2.373495
H       2.610829   -2.707068   -4.365100
