17

C       0.024794    1.542135    0.067663
C       0.004801    0.045958    0.045464
C      -0.018275   -0.748245   -1.091760
N      -0.007665   -2.077663   -0.667266
C       0.016924   -2.125563    0.694773
N      -0.048798   -3.357841    1.357876
C       0.032660   -0.827361    1.167926
C      -0.037060   -0.406392   -2.453736
C      -0.059774   -0.124134   -3.627684
H       0.927257    1.927032    0.557221
H      -0.004246    1.944986   -0.947901
H      -0.833976    1.946502    0.616263
H      -0.143074   -2.868744   -1.272705
H       0.704675   -3.987389    1.101132
H      -0.035113   -3.232006    2.361615
H       0.079746   -0.537970    2.207260
H      -0.074163    0.133708   -4.656939
