13

N       0.004531    1.432376   -0.144486
C      -0.015984    0.061041   -0.065954
C      -1.184874   -0.694889   -0.088553
O      -2.365152   -0.020677   -0.130262
C      -1.062709   -2.085150   -0.061007
N       0.096273   -2.734283   -0.009251
N       1.224842   -2.020913    0.022464
C       1.150138   -0.716223   -0.004263
F       2.306296   -0.046061    0.039387
H       0.853410    1.876118    0.168327
H      -0.846826    1.901626    0.122330
H      -3.096994   -0.647192   -0.124474
H      -1.952061   -2.712534   -0.079474
