19

C      -0.019774    1.220191    0.390728
O      -0.525395    0.316259   -0.582327
C      -1.228883   -0.728267   -0.094539
N      -1.674030   -1.611716   -0.869655
C      -2.438509   -2.706210   -0.332641
C      -1.964394   -4.141704   -0.683745
C      -2.506906   -4.600970    0.695670
C      -2.442267   -3.125463    1.173399
H       0.470912    2.023412   -0.160354
H      -0.824249    1.646578    1.003007
H       0.714224    0.736824    1.047518
H      -1.363233   -0.709749    0.996508
H      -3.474937   -2.587529   -0.674442
H      -2.363864   -4.605737   -1.588069
H      -0.871631   -4.178761   -0.717257
H      -3.538150   -4.959115    0.629041
H      -1.920001   -5.335525    1.250586
H      -1.477633   -2.913392    1.646290
H      -3.241461   -2.749810    1.817335
