11

O      -0.032393   -0.076085    0.003278
C      -0.001043    1.139998    0.009336
N      -1.173247    1.909394    0.028912
C      -1.182878    3.272051    0.036356
C      -0.002925    3.944996    0.024472
N       1.198796    3.284507    0.005174
C       1.197834    1.986803   -0.001776
H      -2.036544    1.382671    0.037418
H      -2.151325    3.757093    0.051687
H       0.026560    5.026750    0.029889
H       2.148935    1.459365   -0.017052
