17

C      -0.109012    1.597938    0.098143
C      -0.022912    0.062908   -0.011930
C      -1.366235   -0.522342    0.048115
N      -2.425392   -0.979621    0.108216
C       0.700085   -0.438662   -1.298925
O       0.095908    0.037501   -2.475802
C       2.212417   -0.117250   -1.245571
C       2.931522   -0.660346   -2.394923
N       3.509105   -1.090603   -3.297691
H       0.887253    2.047072    0.128181
H      -0.665512    2.016829   -0.744398
H      -0.632231    1.883313    1.012970
H       0.531537   -0.325540    0.852177
H       0.586067   -1.525867   -1.342069
H       0.270488    0.980504   -2.569118
H       2.373847    0.967090   -1.216684
H       2.651891   -0.527218   -0.329075
