16

C      -0.028590    1.492028    0.249870
C      -0.002704    0.008682    0.038056
C      -0.909084   -0.957666    0.741366
C       0.578406   -1.105940    0.936645
O       1.172745   -1.786940   -0.165680
C       0.741495   -0.736215   -1.072845
C       1.288905   -0.974003    2.212630
O       0.842219   -0.380607    3.169479
H       0.924719    1.952250   -0.029932
H      -0.819303    1.961890   -0.346722
H      -0.219039    1.723692    1.301975
H      -1.433124   -0.550793    1.599875
H      -1.419275   -1.748490    0.198170
H       0.147518   -1.126760   -1.907159
H       1.606413   -0.183521   -1.457175
H       2.296643   -1.442556    2.220512
