16

N       0.076840    0.879567    0.878213
C      -0.028340    0.035379   -0.180755
O       0.804907   -0.091118   -1.059201
C      -1.288900   -0.757538   -0.186755
O      -2.252543   -0.612456    0.873390
C      -2.438363   -2.064672    0.918601
C      -1.537812   -2.268876   -0.291836
C      -1.975594   -1.326360   -1.388877
O      -3.306548   -1.032389   -1.655629
H       0.899877    1.451077    0.968461
H      -0.637840    0.898122    1.585977
H      -2.033017   -2.466028    1.851564
H      -3.491645   -2.342005    0.810112
H      -0.820968   -3.065877   -0.433591
H      -1.355861   -1.360415   -2.278812
H      -3.627145   -0.499298   -0.915827
