17

O      -0.080361    1.400647   -0.011267
C      -0.056948    0.015122   -0.005926
C      -0.329016   -0.827662    1.232723
C      -1.420625   -0.153045    2.065600
N      -2.269801    0.037134    0.837077
C      -1.316180   -0.787213    0.057471
C      -1.775869   -1.837264   -0.920577
C      -2.547345   -1.275997   -2.034102
N      -3.166870   -0.830908   -2.901574
H      -1.012118    1.644540    0.108405
H       0.726221   -0.386063   -0.644008
H       0.345070   -1.603005    1.575558
H      -1.876293   -0.833426    2.790081
H      -1.154831    0.785345    2.562262
H      -3.180758   -0.398132    0.929471
H      -0.905383   -2.364055   -1.326617
H      -2.395646   -2.592422   -0.419031
