19

C       0.067053    1.604675   -0.037805
C       0.057621    0.074267   -0.072950
C       0.833633   -0.519428   -1.250888
C       0.619441   -2.023259   -1.284270
O       0.951602   -2.681275   -0.043619
C       0.932582   -2.043107    1.138573
O       1.248391   -2.636126    2.139635
C       0.611216   -0.538693    1.215913
O       1.833541    0.111633    1.548292
H       1.087454    1.986423    0.038253
H      -0.391364    2.010560   -0.945097
H      -0.495300    1.982161    0.822403
H      -0.985727   -0.264087   -0.154814
H       0.494471   -0.097766   -2.203165
H       1.899508   -0.288129   -1.145668
H      -0.428437   -2.257877   -1.511140
H       1.244126   -2.511526   -2.036375
H      -0.116084   -0.423954    2.033049
H       2.210622   -0.380022    2.288386
