21

C       0.031065    1.550274    0.002121
C       0.061138    0.021337    0.015750
C      -1.356398   -0.534800    0.179247
C       0.819991   -0.707738   -1.107144
C       2.303562   -0.773043   -0.727963
C       1.309918   -1.780210   -0.172186
C       1.061121   -0.709605    0.974768
C       2.469542   -0.136814    0.652429
O       3.514588   -0.707217    1.413363
H       1.004347    1.987294   -0.232347
H      -0.678197    1.909541   -0.752563
H      -0.295020    1.946636    0.970974
H      -1.993870   -0.238460   -0.661921
H      -1.354362   -1.627894    0.231044
H      -1.820297   -0.152335    1.095579
H       0.511817   -0.829208   -2.139950
H       3.071490   -0.935204   -1.474862
H       1.255843   -2.857373   -0.227712
H       0.791611   -0.914392    2.010624
H       2.616005    0.943055    0.736622
H       3.470340   -1.663302    1.289560
