19

O      -0.139845    1.437339    0.101560
C       0.013043    0.025690    0.057974
C      -1.383537   -0.575177    0.036405
C      -1.371778   -2.088124   -0.052170
O      -0.340721   -2.724764   -0.148821
C      -2.703887   -2.782847   -0.009107
O      -3.840289   -1.977415    0.127004
C      -2.822261   -4.097808   -0.762997
C      -2.750664   -4.102193    0.732711
H       0.737291    1.830613    0.120809
H       0.568262   -0.297610   -0.833659
H       0.563348   -0.351879    0.931731
H      -1.955226   -0.271529    0.921040
H      -1.948339   -0.169363   -0.814184
H      -4.076064   -1.631254   -0.740489
H      -3.783705   -4.291216   -1.225416
H      -1.946558   -4.417106   -1.315625
H      -1.827774   -4.428256    1.196676
H      -3.663714   -4.285058    1.286508
