20

C      -0.065538    1.603774    0.024567
C      -0.076428    0.073618    0.044721
C       0.816749   -0.523807    1.149307
C       0.807243   -2.023363    1.203788
C       1.790965   -2.872363    0.746833
O       3.006213   -2.659978    0.173650
N       1.406345   -4.165885    0.946549
C       0.157314   -4.179793    1.541071
C      -0.230962   -2.877459    1.707529
H       0.944485    1.992872   -0.149740
H      -0.712958    1.998453   -0.764752
H      -0.414679    2.015358    0.978411
H      -1.101160   -0.290535    0.186623
H       0.248707   -0.318001   -0.927201
H       1.845244   -0.155771    1.007122
H       0.501332   -0.113033    2.118167
H       3.148833   -1.709789    0.121475
H       1.967010   -4.964200    0.706492
H      -0.326999   -5.109872    1.786794
H      -1.160237   -2.548126    2.148598
