21

C      -0.524631    1.666093    0.028407
O      -0.420912    0.396081    0.632220
C      -1.267891   -0.561953    0.060647
C      -0.872539   -1.199018   -1.305008
C      -1.299476   -2.570032   -0.718403
O      -0.587925   -3.738163   -1.043000
C      -1.205668   -1.958941    0.720989
C       0.112630   -2.253186    1.428554
O      -2.312363   -2.184404    1.572661
H       0.152017    2.336800    0.563371
H      -0.234719    1.642813   -1.032866
H      -1.548968    2.064137    0.097053
H      -2.309031   -0.208340    0.050812
H      -1.372119   -0.854004   -2.211435
H       0.212218   -1.145281   -1.448671
H      -2.348472   -2.786420   -0.938244
H       0.351829   -3.556373   -0.940124
H       0.980691   -1.985477    0.818571
H       0.171517   -1.674823    2.352719
H       0.179785   -3.320999    1.667128
H      -2.232682   -3.072613    1.937703
