21

C       0.273724    0.853702   -0.532095
O      -0.033616   -0.093568    0.478639
C      -1.314405   -0.617422    0.345147
C      -1.605170   -1.680921   -0.696985
O      -0.520695   -2.240084   -1.382092
C       0.399379   -2.813586   -0.441253
C      -0.333944   -2.930542    0.913312
C      -1.570669   -2.047369    0.769551
C      -2.796763   -2.386017    1.584297
H       1.286644    1.213119   -0.335461
H       0.232428    0.396909   -1.528345
H      -0.417727    1.709088   -0.502244
H      -2.116997    0.096138    0.551209
H      -2.509129   -1.655358   -1.297272
H       0.718732   -3.783747   -0.837017
H       1.276132   -2.165943   -0.351526
H      -0.660572   -3.958531    1.103244
H       0.311851   -2.625220    1.741226
H      -2.604516   -2.273125    2.657693
H      -3.638332   -1.733499    1.331413
H      -3.112902   -3.420645    1.407550
