16

C      -0.003342    1.523797   -0.017313
N       1.509924    1.549913    0.015009
C       1.544620    0.064672   -0.047949
C       1.500212   -0.690007    1.300152
O       0.034353   -0.735912    1.258933
C       0.037546   -0.030453    0.010622
C       0.044314   -0.889188   -1.268303
O       0.680039   -0.087592   -2.263336
C       1.533303   -0.772499   -1.340366
H      -0.448703    1.982886    0.868988
H      -0.449085    1.943961   -0.922851
H       1.913527    1.993564   -0.802784
H       1.931496   -1.696714    1.328555
H       1.862580   -0.098622    2.145950
H      -0.631369   -1.668133   -1.604284
H       2.285610   -1.426826   -1.768541
