18

C       0.032106    1.602028    0.019857
C      -0.082700    0.108272    0.072656
N       0.525176   -0.695757   -1.051204
C      -0.493612   -1.728938   -0.754424
C      -0.523226   -1.831442    0.787170
C       0.423033   -0.735862    1.283642
O       1.797839   -0.957818    1.373280
C      -1.385432   -0.830482    0.058554
O      -2.732624   -0.625859    0.201404
H       1.086115    1.899049    0.055193
H      -0.407942    2.016302   -0.894852
H      -0.477378    2.058573    0.873920
H       0.286077   -0.246859   -1.934264
H      -0.692599   -2.579821   -1.392629
H      -0.840848   -2.742144    1.278279
H       0.079425   -0.318661    2.234107
H       2.078190   -1.116582    0.458898
H      -3.073964   -0.234356   -0.610682
