19

O      -0.006799   -0.035539   -0.155278
C      -0.059497    1.150479   -0.065574
C      -1.275180    2.174119    0.170203
C      -0.212431    2.953843    0.995920
C       0.763562    4.195866    1.018901
C       1.915373    3.094459    1.100862
C       0.911805    2.333393    0.164745
C       0.979238    3.245331   -1.104936
C       0.847295    4.646578   -0.440682
H      -1.627115    2.634093   -0.753271
H      -2.125413    1.760725    0.715617
H      -0.200153    2.513458    1.998232
H       0.671372    4.960023    1.791931
H       2.897096    3.368965    0.704229
H       2.008882    2.652518    2.093617
H       1.937919    3.095733   -1.608705
H       0.197423    3.040495   -1.838275
H      -0.048286    5.184715   -0.762435
H       1.711724    5.289442   -0.628179
