16

C      -0.103765    1.483374   -0.117581
C      -0.075123    0.006488    0.054876
C      -1.009256   -0.973743   -0.077017
C      -0.303326   -2.168187    0.246197
C      -0.807243   -3.579779    0.239360
C      -0.978055   -4.099481   -1.183422
O      -1.989945   -4.586763   -1.611036
N       0.951875   -1.920323    0.541277
O       1.098951   -0.540873    0.421852
H       0.158444    1.991204    0.816232
H       0.615697    1.801793   -0.878822
H      -1.100246    1.807539   -0.422486
H      -2.044321   -0.867836   -0.356998
H      -0.063765   -4.212981    0.738398
H      -1.763720   -3.673030    0.759827
H      -0.067503   -3.993223   -1.814029
