16

O      -0.165782    1.314022    0.006668
N      -0.028102   -0.095566    0.002673
C      -1.148535   -0.670912    0.009070
C      -2.620451   -0.227904    0.020073
C      -3.045915   -1.027820   -1.226322
C      -2.357565   -2.172439   -1.232598
C      -1.443169   -2.173837    0.007822
C      -2.340560   -2.177846    1.260593
C      -3.028887   -1.033225    1.268681
H       0.753685    1.599397    0.001015
H      -2.834643    0.836499    0.023841
H      -3.787543   -0.688071   -1.935976
H      -2.411240   -2.983008   -1.946074
H      -0.598893   -2.859041    0.000577
H      -2.384524   -2.991505    1.971211
H      -3.760749   -0.696575    1.989857
