16

O      -0.570819    0.474215    0.176026
C       0.401039    0.888689   -0.398585
C       1.256160    2.044025    0.104819
C       1.367172    3.146365   -0.932414
C       2.541203    3.999276   -1.184905
C       3.874472    3.289867   -0.963044
C       3.316412    2.225905   -1.921118
O       3.695565    1.191074   -2.370583
N       2.098835    2.962201   -2.233997
H       0.747561    0.442269   -1.355223
H       0.802653    2.435542    1.019990
H       2.241768    1.635837    0.359424
H       0.413776    3.630586   -1.133345
H       2.440943    5.054557   -1.408542
H       4.718921    3.817377   -1.414074
H       4.147792    2.977598    0.047752
