17

O      -0.078231    1.457797   -0.062536
C      -0.005120    0.094629    0.110749
C      -0.112538   -0.902518   -1.025914
C      -1.164347   -0.924402    0.054408
C      -0.644370   -1.522426    1.380920
O      -0.191350   -2.845915    1.599785
C       1.095366   -2.699041    2.234346
C       1.631766   -1.342082    1.766648
C       0.592993   -0.685502    1.266736
H       0.708914    1.748910   -0.536724
H      -0.454677   -0.465645   -1.959944
H       0.603406   -1.712345   -1.126481
H      -2.207958   -0.742038   -0.168506
H      -1.313650   -1.194443    2.193625
H       0.990998   -2.765672    3.330434
H       1.736187   -3.527996    1.910900
H       2.683655   -1.086660    1.779169
