17

O       0.067928    0.023938    0.098933
C       0.029368    1.221468    0.039222
C      -1.262710    2.102935    0.016362
C      -0.858471    3.602586   -0.209371
C       0.552341    3.460395   -0.805779
C       1.977231    3.800788   -0.256633
C       1.625311    3.166436    1.095763
C       1.122217    2.249732   -0.073417
O       2.428916    2.443091   -0.730972
H      -1.870136    1.725826   -0.813531
H      -1.845073    1.934572    0.926648
H      -1.552028    4.107667   -0.885058
H      -0.873478    4.154045    0.732824
H       0.553146    3.331637   -1.891167
H       2.648425    4.626753   -0.494938
H       2.468444    2.749431    1.645492
H       0.897893    3.658160    1.741892
