20

C      -0.005942    1.544503   -0.179611
C      -0.033144    0.025804    0.035525
C      -1.422881   -0.543499    0.113627
C      -2.447035   -0.113172    1.186949
C      -3.411369   -1.275804    0.864657
N      -2.633217   -2.506542    1.191142
C      -1.769762   -2.118607    0.072887
C      -2.958779   -1.492683   -0.659904
O      -2.230414   -0.353136   -1.100902
H       1.021406    1.903363   -0.291318
H      -0.561913    1.813277   -1.082053
H      -0.456487    2.076922    0.664065
H       0.499657   -0.471900   -0.783610
H       0.496475   -0.238040    0.960274
H      -2.085774   -0.157267    2.219275
H      -2.841130    0.882166    0.972216
H      -4.447567   -1.230993    1.196272
H      -2.192361   -2.483265    2.110983
H      -1.041655   -2.816912   -0.338937
H      -3.621250   -1.958947   -1.385040
