20

C       0.398439    1.642823   -0.056677
C      -0.029922    0.175756    0.065301
C       0.280778   -0.589573   -1.228097
O      -0.345855   -1.871859   -1.218412
C       0.451247   -2.923114   -0.780156
O       1.148037   -2.635778    0.423257
C       0.425988   -1.963144    1.404891
N      -0.223545   -2.537885    2.321154
C       0.601889   -0.470625    1.318988
H       1.480044    1.728312   -0.214765
H      -0.103009    2.133719   -0.897103
H       0.152393    2.201222    0.851460
H      -1.120154    0.134413    0.182788
H      -0.139308   -0.050312   -2.083542
H       1.364677   -0.684285   -1.384871
H      -0.230633   -3.772943   -0.649112
H       1.244919   -3.179095   -1.496438
H      -0.182671   -3.552634    2.199741
H       1.682682   -0.274350    1.309226
H       0.184139   -0.018419    2.220865
