15

O       0.017032    0.018880    0.120430
C      -0.035004    1.203678    0.010635
C      -1.161396    2.214599   -0.255894
C      -0.067440    3.295036   -0.528593
C       0.016154    4.457565    0.464775
O       0.753604    3.975700    1.598029
C       1.441781    2.831619    1.324221
O       2.207882    2.339434    2.095373
C       1.042929    2.316021   -0.059931
H      -1.818252    1.954539   -1.089496
H      -1.780699    2.408170    0.626853
H      -0.021059    3.622875   -1.566010
H       0.550166    5.317554    0.046084
H      -0.961752    4.792455    0.821680
H       1.925876    2.098098   -0.660996
