20

C      -0.006446    1.540719    0.053574
C      -0.014635    0.038489   -0.025407
C      -0.045194   -0.615559   -1.189180
C      -0.019639   -2.113862   -1.336611
C       0.419672   -2.804627   -0.026683
C      -0.321006   -2.183568    1.176387
C       0.023289   -0.694747    1.297347
C       0.215136   -4.251807   -0.096959
N       0.042209   -5.393466   -0.152291
H       0.874318    1.902158    0.600324
H      -0.001283    1.999177   -0.938625
H      -0.883106    1.913393    0.598865
H      -0.087901   -0.048305   -2.116502
H      -1.009895   -2.488031   -1.631335
H       0.658356   -2.402471   -2.148053
H       1.495976   -2.634505    0.108592
H      -1.399024   -2.308793    1.024126
H      -0.063503   -2.715418    2.096630
H       1.018806   -0.571962    1.750207
H      -0.671922   -0.216905    1.999609
