19

C       0.013287    1.595659    0.094033
O       1.497293    1.506615   -0.024977
C       1.205767    0.312378   -0.879360
C       1.207212   -1.245369   -1.159634
C       1.713464   -2.175076   -0.077932
C       1.512610   -1.506407    1.291268
C       0.229274   -0.656241    1.286766
C       0.026240    0.032272   -0.072089
O      -0.282526   -1.088228   -1.029773
H      -0.279151    2.015843    1.059652
H      -0.412046    2.159489   -0.742657
H       0.928122    0.735729   -1.851311
H       1.471189   -1.544970   -2.176427
H       1.152072   -3.112879   -0.156319
H       2.769237   -2.412912   -0.250217
H       1.501234   -2.243719    2.099226
H       2.357711   -0.835808    1.479043
H      -0.656968   -1.283696    1.438127
H       0.260823    0.070451    2.102860
