19

O       0.014909    0.051834    0.147069
C      -0.039283    1.250299    0.065257
C      -1.245896    2.170116    0.011967
C      -0.859814    3.123636    1.193944
C       0.281458    3.547852    0.239388
C      -0.694206    3.301613   -0.949645
C       0.114855    2.852483   -2.174503
C       1.449839    2.344824   -1.548806
C       1.116236    2.267085   -0.039172
H      -2.227618    1.711596   -0.090927
H      -1.599743    3.914610    1.336275
H      -0.609963    2.669006    2.156822
H       0.829948    4.482272    0.360893
H      -1.435671    4.084099   -1.118758
H      -0.400890    2.068137   -2.737778
H       0.282479    3.684932   -2.863892
H       1.771754    1.378514   -1.944673
H       2.260953    3.060600   -1.718313
H       1.963911    2.053299    0.612590
