18

C       0.058360    1.571613    0.028190
C       0.012664    0.072071    0.051034
C      -0.876757   -0.736224    0.952618
C       0.617994   -0.915753    1.042610
C       1.254914   -1.707387   -0.127359
C       0.316414   -2.231083   -1.198724
C      -0.948466   -2.907612   -1.056109
N      -1.939980   -3.502554   -1.005236
C       0.634577   -0.748215   -1.121718
H       1.048826    1.939713   -0.264576
H      -0.670993    1.980766   -0.681908
H      -0.172847    1.982988    1.015605
H      -1.282931   -0.157838    1.778493
H      -1.547330   -1.509476    0.604361
H       1.170575   -0.706854    1.949593
H       2.272416   -2.075651   -0.091762
H       0.888027   -2.690887   -2.003828
H       1.098365   -0.263383   -1.972306
