15

C       1.112338   -0.680285   -0.522824
C       0.664479    0.354478   -0.104877
C       0.138935    1.631348    0.385832
N       0.728842    2.855413   -0.143489
C       1.661481    2.785763   -0.978685
O       2.186093    3.939903   -1.475996
C       3.264471    3.786694   -2.379952
C       4.532253    3.462637   -1.705512
N       5.526843    3.200206   -1.180542
H       1.495915   -1.606888   -0.873377
H      -0.940314    1.677631    0.191094
H       0.237879    1.667200    1.478418
H       2.109779    1.865963   -1.371641
H       3.056040    3.015858   -3.133192
H       3.368294    4.743806   -2.896690
