16

O      -0.803372    0.442694    0.127904
C      -0.236880    1.482890   -0.072002
C       1.267543    1.693953    0.058211
C       1.847394    2.513525   -1.128883
C       2.047277    3.968840   -0.592397
C       1.953788    3.798084    0.915089
C       1.549295    2.578102    1.255214
C       3.307156    4.574351   -1.029452
N       4.303409    5.049631   -1.372073
H      -0.796965    2.404156   -0.360598
H       1.723042    0.703766    0.151785
H       2.810725    2.092726   -1.421688
H       1.203521    2.498092   -2.011851
H       1.242492    4.628255   -0.944372
H       2.189285    4.606766    1.595747
H       1.381334    2.235111    2.269360
