17

O      -0.139209    1.251336   -0.401555
N       0.014592   -0.123394   -0.148676
C      -1.098254   -0.658267    0.127602
C      -2.523063   -0.172480    0.302626
C      -2.863230   -1.583025    0.885939
C      -4.052849   -2.305790    0.244649
C      -4.200723   -3.677460    0.729837
N      -4.296268   -4.758581    1.126508
C      -1.429582   -2.086534    0.505336
H       0.766384    1.528178   -0.578211
H      -2.655448    0.684688    0.967295
H      -3.023576    0.052228   -0.646302
H      -2.999239   -1.549629    1.968911
H      -4.982234   -1.760750    0.447966
H      -3.935134   -2.333429   -0.845641
H      -1.421915   -2.777444   -0.345190
H      -0.837353   -2.529268    1.309069
