16

C      -0.025286   -1.184478    0.003962
C       0.019512    0.017052    0.007943
C       0.050637    1.452757   -0.033422
C      -0.948407    2.168000   -0.962792
C      -0.266013    3.455332   -1.400515
O       0.064533    4.362796   -0.336900
C       1.095823    3.500707   -0.844768
C       1.320711    2.269774    0.012788
N       0.483060    2.140595    1.200866
H      -0.057442   -2.245712    0.018675
H      -1.139599    1.541691   -1.839859
H      -1.910799    2.350674   -0.473117
H      -0.551722    3.934076   -2.333858
H       1.933087    3.998481   -1.323280
H       2.308190    1.824476    0.059143
H      -0.046402    3.005439    1.312967
