16

C      -0.053140    1.531744   -0.063460
C       1.501034    1.514729   -0.043610
C       1.417836    0.102894    0.588871
C      -0.037517   -0.016720    0.071293
N       2.383535   -0.898913    0.167213
N       2.616729   -1.227533   -1.093038
N       3.534445   -2.145821   -1.042822
N       3.855971   -2.372601    0.244319
N       3.140775   -1.597343    1.001498
H      -0.468989    2.016056    0.823431
H      -0.533831    1.948223   -0.948984
H       1.916064    1.458885   -1.052121
H       2.028497    2.281968    0.525399
H       1.480392    0.121649    1.676569
H      -0.760989   -0.494639    0.733733
H      -0.058050   -0.506115   -0.904686
