21

C      -0.023176    1.526393   -0.027164
C       0.011945   -0.000031    0.057137
O       0.753540   -0.442745    1.197193
C      -1.383391   -0.596732    0.021641
C      -1.963647   -1.277427   -1.190779
O      -0.942755   -1.929956   -1.949330
C      -0.660962   -2.810000   -0.823697
C      -1.681938   -2.088458    0.056149
C      -2.570172   -2.747246    1.069855
H       0.992123    1.931137   -0.009210
H      -0.516090    1.856319   -0.947422
H      -0.576007    1.952545    0.820009
H       0.572182   -0.388132   -0.798254
H       0.279742   -0.151506    1.984011
H      -2.134680   -0.032475    0.576143
H      -2.871288   -0.988880   -1.710288
H      -0.956019   -3.837491   -1.066903
H       0.389292   -2.782540   -0.516488
H      -2.015022   -2.994329    1.982808
H      -3.397419   -2.090088    1.356825
H      -3.001766   -3.676233    0.680110
