16

C      -0.056321    1.532116   -0.011173
C      -0.015049    0.027965   -0.021868
C      -0.006893   -0.708646   -1.196656
C       0.010933   -2.103606   -1.160070
C       0.023002   -2.713051    0.085415
N       0.025655   -2.040470    1.239467
C       0.003396   -0.705829    1.188018
N      -0.056691   -0.053658    2.409705
H       0.848001    1.966270    0.438106
H      -0.135819    1.930164   -1.025963
H      -0.909921    1.904818    0.567902
H      -0.020273   -0.186015   -2.149282
H       0.015348   -2.693459   -2.068738
H       0.036046   -3.797368    0.170911
H       0.177163   -0.656491    3.185416
H       0.366157    0.859970    2.460556
