14

C      -0.015316    1.467485    0.010420
N      -0.002710    0.010670    0.012511
N      -0.040939   -0.585563   -1.154830
N      -0.032306   -1.879303   -1.234142
C       0.017892   -2.636928   -0.076911
O       0.029050   -3.858021   -0.067244
C       0.058903   -1.879354    1.194851
N       0.108114   -2.617338    2.310200
N       0.048239   -0.569485    1.232202
H       0.891467    1.840439    0.492573
H      -0.060017    1.793471   -1.026621
H      -0.886499    1.824837    0.564552
H       0.110481   -3.617256    2.179645
H       0.136442   -2.199127    3.223437
