17

C      -0.044051    1.477743    0.341796
C       1.241215    0.776208    0.087103
C       2.008751    0.278646    1.297272
O       2.295594    1.322303    2.268516
C       1.476682    1.068848    3.316615
N       0.737470    0.037978    3.314651
C       1.029750   -0.669391    2.055446
C      -0.174713   -0.865711    1.099052
N      -0.049796    0.064286   -0.041792
H      -0.296983    1.742597    1.364428
H      -0.435810    2.156083   -0.410819
H       1.789656    0.956542   -0.832192
H       2.964991   -0.166728    1.019701
H       1.520534    1.810216    4.107318
H       1.473112   -1.637929    2.303994
H      -0.170147   -1.881880    0.693254
H      -1.124006   -0.714393    1.619269
