16

O      -0.067155    0.004211   -0.064704
C      -0.027258    1.199193   -0.019299
N      -1.021667    2.179005    0.030128
C      -0.115624    3.312628    0.033166
C       0.402090    3.903057    1.384320
C       1.629399    2.915999    1.323182
C       1.042395    2.340798    0.005351
O       1.544862    2.819718   -1.257408
C       0.462106    3.803385   -1.319194
H      -2.030333    2.101222    0.021601
H       0.658355    4.963984    1.355185
H      -0.281022    3.727937    2.216433
H       2.591048    3.405514    1.161779
H       1.722686    2.208512    2.148538
H      -0.180427    3.650352   -2.191953
H       0.856226    4.825349   -1.318835
