19

C       0.089519    1.574590    0.068596
C       0.179797    0.066135   -0.066065
O       0.476196   -0.479483    1.224777
C       0.609254   -1.829100    1.235404
C       1.330210   -2.728553    2.211661
C       0.086324   -3.580705    2.450123
C      -0.373452   -3.089940    1.053448
O       0.574626   -3.700165    0.139860
C       1.566142   -2.827852    0.669155
H       1.035879    1.986205    0.430652
H      -0.138038    2.027390   -0.900981
H      -0.697958    1.852489    0.774751
H      -0.767414   -0.354064   -0.433246
H       0.968158   -0.225891   -0.773556
H       2.132358   -2.468985    2.890345
H       0.195181   -4.663713    2.561292
H      -0.533189   -3.168109    3.250330
H      -1.404348   -3.139972    0.709602
H       2.535637   -2.765346    0.193837
