17

O       0.094977    1.424980   -0.033704
C       0.046251    0.010881   -0.023312
C       0.784839   -0.569768    1.160767
C       0.153557   -1.040077    2.234752
C      -1.343574   -1.033882    2.363754
N      -1.945750   -0.180625    1.338855
C      -1.416083   -0.499232    0.008300
C      -2.236134    0.138182   -1.025399
N      -2.910014    0.603089   -1.839921
H      -0.393398    1.710661    0.750226
H       0.514999   -0.307769   -0.959791
H       1.869313   -0.554715    1.111545
H       0.708953   -1.454748    3.071274
H      -1.712918   -2.077732    2.323388
H      -1.630385   -0.644346    3.347940
H      -2.955660   -0.262110    1.351253
H      -1.411082   -1.585074   -0.200904
