22

C       0.101400    1.580880   -0.001985
C       0.196395    0.055294   -0.077679
C       0.540613   -0.591686    1.273459
C       0.620346   -2.089983    1.213147
C      -0.497788   -3.113024    1.064044
N       0.452068   -4.194377    1.541612
C       1.440539   -4.246080    0.390581
C       1.894728   -2.844931    0.757432
C       1.317953   -3.054480    2.129067
H       1.049292    2.020492    0.328550
H      -0.144810    2.015174   -0.975890
H      -0.671928    1.895422    0.707770
H      -0.754331   -0.355163   -0.441394
H       0.953986   -0.234824   -0.816205
H       1.496175   -0.188939    1.636287
H      -0.212771   -0.297208    2.017787
H      -1.289129   -2.973501    1.806955
H      -0.946294   -3.302757    0.081293
H       2.198318   -5.006036    0.600103
H       0.988362   -4.437690   -0.589811
H       2.793837   -2.305882    0.483539
H       1.707222   -3.006261    3.136481
