20

C      -1.123938    0.924105    0.167406
C      -0.033558   -0.132285    0.129244
N       1.115471    0.162736   -0.761576
C       2.095682   -0.374377    0.216421
C       2.559291   -1.811812    0.001776
C       3.272293    0.569846    0.414579
O       4.371790    0.234513    0.770293
C       0.971086   -0.240056    1.318477
O       1.052027    0.859715    2.188303
H      -0.716481    1.919727    0.367747
H      -1.638384    0.972309   -0.797935
H      -1.865867    0.691237    0.937810
H      -0.489407   -1.114682   -0.062305
H       1.110233   -0.293930   -1.668163
H       3.101304   -1.907655   -0.945272
H       3.241825   -2.110419    0.801312
H       1.710152   -2.501910   -0.016229
H       3.027281    1.632065    0.187925
H       0.870152   -1.119053    1.957262
H       1.017029    1.670460    1.669404
