16

C      -0.184398    1.463207   -0.038954
C       0.065220   -0.021196   -0.141498
O       1.110306   -0.545766   -0.427587
O      -1.064150   -0.715474    0.135707
C      -0.939393   -2.144561    0.077077
C      -2.308019   -2.731859    0.405780
C      -2.351498   -4.226511    0.166336
O      -2.719532   -5.039247    0.972786
H      -0.518922    1.718024    0.970666
H       0.732836    2.001364   -0.274009
H      -0.979630    1.759307   -0.728850
H      -0.602273   -2.438219   -0.923161
H      -0.175303   -2.472322    0.788693
H      -2.598883   -2.524484    1.438097
H      -3.049000   -2.269945   -0.261993
H      -2.018396   -4.539037   -0.851256
