22

C       0.113899    1.569826   -0.009229
C       0.049431    0.034865   -0.010329
C       0.750506   -0.529069   -1.255213
C       0.651898   -0.547078    1.274558
C      -0.155039   -0.237121    2.540368
C      -0.906864   -1.510224    2.454940
C       0.288364   -2.035537    1.567380
C       0.994923   -2.287914    2.907296
N       0.061142   -1.316184    3.571117
H       1.151826    1.917210    0.059813
H      -0.310603    1.979740   -0.931468
H      -0.438372    2.000726    0.831079
H      -1.009012   -0.260699   -0.047145
H       1.811726   -0.252778   -1.263829
H       0.690883   -1.620781   -1.299749
H       0.299385   -0.133369   -2.171113
H       1.726373   -0.316123    1.310267
H      -0.472615    0.721243    2.929971
H      -1.946132   -1.779621    2.587436
H       0.255166   -2.773152    0.767719
H       0.807197   -3.280082    3.325874
H       2.061908   -2.045952    2.986083
