15

O      -0.134468    0.045839    0.223779
C      -0.032567    1.222773    0.107635
O      -1.144556    2.074527    0.026183
C      -0.627815    3.338257   -0.072542
N       0.630659    3.490815   -0.091039
C       1.188502    2.139908    0.005047
C       2.156025    1.958512    1.167274
C       3.143870    3.013895    1.482324
N       2.013454    2.746862    2.394638
H      -1.369997    4.125931   -0.126968
H       1.713526    1.893887   -0.928140
H       2.412551    0.914375    1.330160
H       4.121231    2.740112    1.868229
H       3.114048    3.920485    0.885455
H       1.309433    3.468789    2.251920
