15

C       0.075802    1.383119    0.069507
N       0.222169   -0.059137    0.059504
C       0.652809   -0.639914   -0.960089
O       0.815256   -1.977709   -1.064085
C       1.352051   -2.250584   -2.356559
N       1.633005   -3.543937   -2.744992
C       1.460098   -1.079634   -2.981040
O       1.844599   -0.758025   -4.218553
O       1.041833   -0.052862   -2.165029
H       0.704566    1.807921    0.860759
H       0.335957    1.873008   -0.877047
H      -0.960567    1.640226    0.316305
H       0.809839   -4.136063   -2.791080
H       2.325736   -3.994508   -2.155945
H       2.121505    0.166452   -4.222085
