20

C      -0.037177    1.113561   -0.343907
O       0.410422   -0.212585   -0.168196
C       0.819019   -0.554485    1.147005
C       2.178787    0.081129    1.425450
C      -0.304374   -0.589765    2.249777
C      -0.955414   -1.753651    1.439074
C       0.573236   -2.064084    1.460933
C       0.528929   -1.688822    2.970861
H       0.758257    1.855838   -0.186572
H      -0.383124    1.196527   -1.377522
H      -0.874319    1.356965    0.326644
H       2.101023    1.171906    1.474789
H       2.632380   -0.252673    2.358648
H       2.860394   -0.165996    0.605764
H      -0.808320    0.258602    2.716765
H      -1.584195   -2.434761    2.017535
H      -1.393944   -1.510574    0.474335
H       1.084541   -2.912036    1.002288
H       1.454700   -1.400472    3.467690
H      -0.049709   -2.368364    3.600455
