20

O       0.101247    1.253655   -0.600944
C       0.056740    0.071100    0.180280
C      -1.346097   -0.494854    0.219555
C      -2.362282    0.313744    1.009050
O      -3.643493   -0.288854    1.002131
C      -3.601713   -1.584231    1.583900
C      -2.834452   -2.582262    0.705284
C      -1.606412   -1.951704    0.059987
N      -1.786446   -1.027377   -1.083037
H      -0.250529    1.004531   -1.464831
H       0.746683   -0.693016   -0.207787
H       0.395154    0.350361    1.184559
H      -2.005955    0.443022    2.045301
H      -2.476007    1.307161    0.565119
H      -3.131315   -1.520415    2.578474
H      -4.640177   -1.896593    1.722929
H      -2.531926   -3.439593    1.316752
H      -3.488284   -2.978075   -0.081688
H      -0.753650   -2.615475   -0.066525
H      -2.783334   -0.839063   -1.185141
