17

C      -0.022986    1.433343   -0.147261
C       0.036020   -0.062814    0.069464
O       1.050744   -0.680165   -0.789804
C       1.794828   -1.065948    0.343699
C       0.788590   -0.518186    1.326375
C       0.981015   -2.024150    1.225515
O      -0.003357   -2.833150    0.697894
C       1.757152   -2.647730    2.313377
O       1.539131   -3.785028    2.673496
H       0.955084    1.892302    0.024069
H      -0.334694    1.650474   -1.172927
H      -0.749245    1.886011    0.536592
H      -0.936826   -0.538554   -0.086314
H       2.877884   -1.052512    0.280320
H       0.889554    0.047956    2.244242
H       0.094970   -3.679526    1.163148
H       2.556750   -2.030652    2.770968
