19

C       0.059449    1.325773   -0.202401
O       0.034842   -0.084859   -0.067514
C      -1.239681   -0.613294    0.079030
O      -1.974185   -0.434287   -1.139319
C      -2.860584   -1.527900   -1.326176
C      -2.224762   -2.706786   -0.599912
O      -3.059955   -3.729854   -0.160733
C      -0.764668   -2.943879   -0.867278
C      -1.201331   -2.104745    0.318312
H       1.109654    1.624738   -0.220396
H      -0.427855    1.649811   -1.128901
H      -0.437264    1.816072    0.648672
H      -1.768974   -0.089502    0.897511
H      -3.849574   -1.336883   -0.881565
H      -2.986151   -1.674032   -2.405488
H      -3.161669   -4.362592   -0.879628
H      -0.387534   -3.932003   -0.628571
H      -0.287022   -2.446229   -1.704369
H      -1.055815   -2.478869    1.323166
