16

C      -0.421388    1.463684   -0.009201
C       0.123285    0.039922   -0.046381
C       0.968766   -0.369706   -1.257891
O       1.782626    0.734084   -1.612784
C       1.793486   -1.524749   -0.662473
O       1.977640   -1.204965    0.722078
C       1.051821   -0.287666    1.125291
O       1.013754    0.136071    2.242379
H       0.378054    2.186533   -0.177575
H      -1.186818    1.610468   -0.776273
H      -0.863041    1.656669    0.971284
H      -0.707727   -0.675893    0.031601
H       0.360558   -0.706206   -2.107986
H       2.355690    0.472456   -2.340028
H       1.267253   -2.483887   -0.748292
H       2.780608   -1.618534   -1.123481
