13

C       0.011252    1.562575   -0.108032
C      -0.017215    0.033098   -0.159676
C      -1.377907   -0.549533    0.262177
C      -1.357274   -2.059345    0.308242
O      -2.101443   -2.783654   -0.300846
H       0.986761    1.949178   -0.418086
H      -0.745907    1.994984   -0.770614
H      -0.187570    1.927727    0.905480
H       0.219772   -0.307674   -1.174767
H       0.767960   -0.372604    0.491388
H      -1.620672   -0.191775    1.274047
H      -2.179607   -0.230482   -0.410694
H      -0.563988   -2.483288    0.970113
