17

C      -0.048174    1.507427   -0.035778
C      -0.004691    0.001079    0.025723
N      -1.294608   -0.699878    0.085810
C      -0.954064   -1.523926    1.149394
O      -1.535204   -2.422221    1.693542
C       0.430086   -0.829981    1.255361
N       1.601431   -1.453013    0.499709
C       1.085259   -2.177554   -0.677923
C       1.142269   -0.707806   -0.746871
H       0.949466    1.926807    0.126333
H      -0.395946    1.849444   -1.017808
H      -0.724968    1.907540    0.724141
H      -2.018575   -0.823647   -0.610482
H       0.743062   -0.402954    2.205593
H       1.872278   -2.722338   -1.190774
H       0.136247   -2.702508   -0.628392
H       1.857916   -0.175260   -1.366179
