17

O      -0.152493    1.432300    0.019137
C      -0.069198    0.024088    0.009548
C      -1.455416   -0.560906    0.030172
C      -1.628984   -2.103897    0.021205
C      -3.148722   -2.044688    0.049439
C      -3.445268   -0.760987    0.818808
O      -2.212904   -0.169749    1.175227
C      -3.472791   -0.749117   -0.688274
O      -2.254072   -0.151987   -1.080089
H       0.743202    1.781702    0.016657
H       0.436117   -0.355435   -0.891586
H       0.466510   -0.365935    0.888264
H      -1.227813   -2.556707   -0.887965
H      -1.195015   -2.570933    0.907847
H      -3.793536   -2.911651    0.054378
H      -4.265365   -0.576037    1.496281
H      -4.316987   -0.553755   -1.332400
