23

C      -0.189229    1.597649   -0.274184
C      -0.030586    0.094413   -0.032418
C      -1.380335   -0.639732   -0.020352
O      -2.083061   -0.452399   -1.246830
C      -1.270726   -2.133866    0.351433
C      -2.661076   -2.822714    0.361588
C      -2.735826   -3.536779   -1.012074
O      -1.531384   -3.204267   -1.713898
C      -0.540677   -2.967257   -0.715139
H       0.782809    2.096886   -0.329620
H      -0.725053    1.774423   -1.210083
H      -0.761693    2.068718    0.532920
H       0.612691   -0.332772   -0.812254
H       0.478574   -0.082944    0.924382
H      -2.008407   -0.162102    0.746258
H      -1.827280   -1.170865   -1.842089
H      -0.774938   -2.214347    1.323671
H      -2.736645   -3.544186    1.179003
H      -3.463294   -2.091965    0.479789
H      -2.800429   -4.627289   -0.892952
H      -3.574574   -3.205151   -1.628311
H       0.301838   -2.466701   -1.197616
H      -0.180169   -3.918289   -0.291518
