16

C       0.061772    1.487658    0.023084
C       0.006263   -0.001206   -0.055760
C      -0.103518   -0.767525   -1.150291
C      -0.087018   -2.203806   -0.799072
O      -0.246793   -3.141823   -1.545072
C       0.179161   -2.285642    0.710290
C       0.068691   -0.843172    1.216991
O       1.189488   -0.526612    2.037412
H       0.993186    1.804304    0.507618
H       0.011031    1.953989   -0.962995
H      -0.762964    1.879105    0.633200
H      -0.194490   -0.423381   -2.173787
H      -0.501099   -2.989641    1.193826
H       1.200673   -2.643305    0.874590
H      -0.862931   -0.698978    1.787403
H       0.988841    0.271917    2.534857
