14

O      -0.209138   -0.116699    0.043775
C      -0.123761    1.090803    0.137470
N      -1.133929    2.052046   -0.034898
C      -0.695573    3.374106    0.178130
C       0.614778    3.252572    0.463797
C       2.009180    3.664090    0.900452
C       2.336194    2.116567    0.882185
N       0.955221    1.913184    0.420938
H      -2.066544    1.775590   -0.285683
H      -1.360994    4.216382    0.108570
H       2.578337    4.254579    0.179128
H       2.081254    4.133707    1.883650
H       3.095866    1.799550    0.163822
H       2.544317    1.675398    1.860176
