16

O      -0.094975   -0.041654   -0.201521
C      -0.006630    1.163316   -0.244202
C       1.220346    1.923775    0.092330
C       1.146036    3.255155   -0.002339
C       2.198445    4.267100    0.315982
O       3.557742    3.929527    0.067603
C       4.131472    2.792414    0.554935
N       3.699177    1.636089    0.784631
C       2.391337    1.086424    0.540028
H      -0.871416    1.796319   -0.547264
H       0.190947    3.688026   -0.300534
H       2.030331    5.169985   -0.278356
H       2.094449    4.562079    1.372729
H       5.191004    2.996049    0.714621
H       2.079260    0.549763    1.447246
H       2.519566    0.276308   -0.190803
