19

O      -0.904191    1.379373   -0.272388
C       0.202199    0.911244   -0.219824
C       1.464478    1.714080    0.089312
C       1.213420    2.798949    1.136662
C       2.293744    3.881769    1.201644
C       3.719879    3.437054    1.408644
C       4.327055    2.313237    1.024885
C       3.781644    1.124803    0.272429
O       2.432277    0.771232    0.498579
H       0.406816   -0.165058   -0.409761
H       1.766008    2.178635   -0.870297
H       0.244648    3.259381    0.917346
H       1.125874    2.297302    2.106918
H       2.256515    4.478710    0.276132
H       2.028904    4.584588    2.000411
H       4.345427    4.177589    1.904452
H       5.393879    2.229476    1.227629
H       3.948937    1.280507   -0.810490
H       4.355408    0.234090    0.548921
