19

C      -0.048353    1.463052    0.057919
N       0.017225    0.036190   -0.194899
C      -1.221784   -0.711549   -0.064457
C      -1.152163   -2.044618   -0.806774
C       0.119501   -2.778520   -0.465806
N       0.071623   -4.151841   -0.558761
C       1.207334   -2.077016   -0.087514
C       1.233572   -0.611336   -0.009189
O       2.272904    0.007897    0.179431
H       0.957394    1.869259   -0.039301
H      -0.716410    1.945189   -0.664577
H      -0.418796    1.685705    1.070338
H      -1.460962   -0.896547    0.996995
H      -2.036173   -0.104374   -0.473275
H      -2.025453   -2.653281   -0.547115
H      -1.184964   -1.875258   -1.892042
H      -0.636427   -4.545650   -1.158543
H       0.954951   -4.637527   -0.602382
H       2.156706   -2.557787    0.119810
