18

O       0.089363    0.041761    0.276667
C       0.030265    1.227265    0.134721
C      -1.090634    2.263508   -0.044280
C      -1.418403    2.820167    1.353229
C      -0.085199    3.122977    2.085452
C       0.980131    3.470081    1.034139
C       0.327985    4.355783   -0.051180
N      -0.086327    3.127304   -0.810262
C       1.022846    2.356994   -0.083481
H      -1.973944    1.992767   -0.625574
H      -2.025495    3.725100    1.247407
H      -2.023704    2.097099    1.907602
H      -0.210028    3.956273    2.785101
H       0.238192    2.255087    2.670618
H       1.931807    3.773383    1.476342
H      -0.472480    5.040335    0.246464
H       1.047673    4.905694   -0.663900
H       1.974168    2.190145   -0.592933
