21

C      -0.082314    1.553917   -0.005806
C       0.033970    0.034242    0.008765
O      -1.267846   -0.579408    0.032851
C       0.726351   -0.505958   -1.254172
C       0.908573   -2.028463   -1.222101
C       1.699532   -2.466376    0.016337
C       1.025393   -1.968658    1.311379
C       0.788696   -0.468295    1.264280
O       1.138495    0.282277    2.146480
H       0.903324    2.023876   -0.056069
H      -0.673015    1.870514   -0.869943
H      -0.561784    1.915187    0.908976
H      -1.769749   -0.170030    0.746545
H       0.131076   -0.203916   -2.123103
H       1.704344   -0.015966   -1.345454
H      -0.076789   -2.506692   -1.218851
H       1.421283   -2.356806   -2.132727
H       1.796506   -3.556638    0.049206
H       2.719646   -2.063060   -0.036662
H       0.047493   -2.455186    1.410622
H       1.616822   -2.196793    2.201226
