23

C       0.709625    1.475142   -0.865427
C       0.338305    0.001482   -0.760222
C      -0.975631   -0.305969   -1.481130
C       1.462277   -1.029477   -1.137556
C       1.326279   -1.718250    0.253997
C       1.069176   -3.206576    0.307345
C       2.243378   -1.084816    1.317850
O       1.303938   -0.014413    1.566653
C       0.328154   -0.595759    0.678283
H       1.591071    1.697759   -0.259382
H       0.921948    1.748524   -1.905495
H      -0.107372    2.115277   -0.512572
H      -0.887507   -0.104259   -2.554622
H      -1.263589   -1.357258   -1.365217
H      -1.793042    0.308619   -1.087020
H       1.203751   -1.673391   -1.983168
H       2.446169   -0.590782   -1.329153
H       1.958082   -3.768106   -0.006198
H       0.810197   -3.531926    1.320914
H       0.249422   -3.496455   -0.358643
H       2.386580   -1.701273    2.216366
H       3.219813   -0.716160    0.978005
H      -0.639828   -0.746840    1.169214
