19

C       0.037608    1.413739   -0.017669
O      -0.095538    0.013516    0.067989
C       0.642899   -0.570499    1.123455
C       0.090404   -2.004931    1.392244
C       1.338145   -2.764095    1.864245
O       1.824014   -3.983759    1.199739
C       3.106459   -3.342480    0.909658
C       2.461761   -2.017841    1.227011
C       2.110236   -0.833934    0.745293
H       1.073512    1.724876   -0.220715
H      -0.594462    1.748900   -0.843565
H      -0.292561    1.910045    0.908406
H       0.547477    0.066798    2.019346
H      -0.750080   -2.017737    2.090400
H      -0.239622   -2.406634    0.429741
H       1.367105   -2.913833    2.951362
H       3.882852   -3.685737    1.606006
H       3.439009   -3.502168   -0.121243
H       2.663407   -0.187220    0.075268
