18

O      -0.038847   -0.023927    0.266651
C       0.019718    1.185473    0.180564
N       1.162868    1.904030    0.015688
C       2.445418    1.204908   -0.118751
C       3.381956    2.077248   -0.946123
C       2.623298    2.808472   -2.072993
C       2.343167    3.802840   -0.928442
C       1.148893    3.364869   -0.083357
O       3.542949    3.345982   -0.242761
H      -0.876004    1.837771    0.219879
H       2.899363    1.018406    0.863026
H       2.250597    0.237799   -0.589821
H       4.336977    1.589760   -1.153013
H       3.301040    3.226500   -2.817329
H       1.781329    2.303575   -2.549945
H       2.349786    4.878847   -1.116972
H       0.202995    3.684556   -0.534378
H       1.238159    3.838580    0.903873
