15

C       0.003541    1.453395    0.008785
N      -0.035724    0.005412   -0.001906
C      -0.004118   -0.783461   -1.129026
C       0.038912   -2.097113   -0.738922
C       0.036583   -2.116975    0.693002
C      -0.006077   -0.793915    1.105218
C       0.060380   -3.255690    1.530715
C       0.082517   -4.234621    2.233353
H       1.032229    1.831277   -0.005215
H      -0.524114    1.841130   -0.865706
H      -0.494981    1.827071    0.905961
H      -0.016309   -0.335305   -2.109876
H       0.053705   -2.960840   -1.384187
H      -0.018163   -0.374946    2.098350
H       0.101256   -5.094738    2.854535
