25

C       0.209403    1.548651   -0.115915
C       0.432499    0.034387   -0.081909
C       0.319607   -0.554948    1.329796
C       0.516058   -2.056545    1.363483
C       1.914583   -2.651552    1.386061
C       1.014031   -2.747932    2.596220
O       1.279194   -1.955365    3.709163
C       2.265834   -2.502831    4.569143
C       2.458958   -1.556182    5.741205
H       0.942049    2.070372    0.510125
H       0.298335    1.944509   -1.132592
H      -0.786905    1.811047    0.257356
H      -0.295114   -0.458284   -0.740747
H       1.421613   -0.203688   -0.493580
H       1.050618   -0.080528    1.993171
H      -0.667122   -0.310689    1.747104
H      -0.220972   -2.616274    0.791574
H       2.127274   -3.544497    0.808179
H       2.738939   -1.948646    1.456224
H       0.597055   -3.727076    2.840081
H       1.945551   -3.496890    4.922757
H       3.209129   -2.645056    4.019124
H       3.212611   -1.950308    6.429511
H       2.788486   -0.573681    5.391007
H       1.521292   -1.426424    6.289068
