19

C       0.148936    1.656463   -0.340090
O      -0.323376    0.338247   -0.523158
C       0.613531   -0.527619   -1.110388
C       1.770528   -0.987694   -0.213089
C       2.053477   -2.401375   -0.708351
O       3.022416   -3.075658   -0.519237
O       0.998422   -2.834920   -1.451287
C      -0.071900   -1.865586   -1.483139
C      -1.192238   -2.291143   -0.543916
H       0.990190    1.699839    0.366337
H       0.471157    2.105237   -1.292091
H      -0.680312    2.240673    0.064487
H       1.024123   -0.069843   -2.024701
H       2.676852   -0.383796   -0.261938
H       1.448127   -1.037475    0.833210
H      -0.435893   -1.846690   -2.513714
H      -0.852975   -2.322513    0.495507
H      -2.023841   -1.586627   -0.609031
H      -1.543171   -3.287908   -0.822730
