20

C      -0.138234   -1.190344    0.173988
C      -0.016503    0.005641    0.201784
C       0.098741    1.438351    0.197952
N       0.943506    2.066889    1.245634
C       1.370802    2.149520   -0.153772
C       2.639679    1.416470   -0.528000
C       3.885421    2.240399   -0.268536
C       4.456162    2.328661    1.124523
C       5.193013    1.562519    0.053063
H      -0.240298   -2.247114    0.160775
H      -0.820447    1.956014   -0.069496
H       0.511914    2.936788    1.546863
H       1.230147    3.105781   -0.658594
H       2.682530    0.483929    0.043706
H       2.589378    1.135837   -1.588716
H       3.958339    3.144508   -0.869369
H       4.870634    3.274513    1.456068
H       3.953789    1.765264    1.902755
H       5.198395    0.479074    0.115523
H       6.106808    1.986535   -0.348674
