17

C      -0.011357    1.468746    0.008606
O       1.173655    0.668378   -0.064037
C      -0.095439    0.006705    0.021430
C      -0.374879   -0.843673    1.256096
C      -0.291352   -2.289662    0.704731
N      -0.563829   -2.250472   -0.749969
C      -1.790467   -1.528004   -1.099734
C      -0.475428   -0.834631   -1.163615
H      -0.145265    2.025555    0.935734
H      -0.260672    2.019217   -0.898115
H       0.359166   -0.643699    2.038728
H      -1.365823   -0.619977    1.663557
H       0.721057   -2.686659    0.828029
H      -0.983929   -2.978933    1.196217
H      -2.264249   -1.860473   -2.018591
H      -2.486037   -1.247484   -0.311816
H       0.004259   -0.611398   -2.111529
