17

O      -0.824238    1.352300   -0.291971
C       0.221916    0.919788    0.113971
C       1.508397    1.751326    0.274217
O       2.484066    1.163063    0.699144
C       1.412332    3.172435   -0.106969
C       2.108518    4.326052    0.612127
C       3.499109    3.939691    1.133296
C       3.916314    3.575475   -0.328914
C       2.511661    3.974131   -0.800866
H       0.370932   -0.137876    0.419627
H       0.419725    3.437385   -0.456185
H       1.497359    5.146788    0.969013
H       4.040439    4.809252    1.512438
H       3.542294    3.137859    1.870966
H       4.677798    4.252886   -0.721585
H       4.221917    2.544679   -0.510612
H       2.267810    4.474278   -1.730843
