16

O      -0.046544   -0.102017   -0.192529
C       0.073178    1.005342    0.280359
C       1.261504    1.811628    0.181535
C       2.245051    2.512994    0.122236
C       3.426973    3.340304    0.009769
C       4.153494    3.479777   -1.373275
N       4.069065    4.978147   -1.332501
C       2.628367    5.289755   -1.316443
C       3.260950    4.866908   -0.054565
H      -0.754920    1.486883    0.839670
H       4.145725    3.052803    0.782422
H       5.192523    3.150234   -1.343255
H       3.648503    3.029291   -2.231980
H       2.423305    6.348237   -1.439744
H       1.935064    4.626044   -1.829076
H       3.413206    5.534854    0.786434
