17

C      -0.103128    1.558353    0.062373
C       0.040128    0.034567    0.024457
C       0.773677   -0.490487   -1.224769
C       2.248507   -0.071610   -1.291646
C       0.658453   -2.007458   -1.298437
F      -0.624264   -2.409867   -1.319870
F       1.240274   -2.498120   -2.406552
F       1.243768   -2.605812   -0.245284
H       0.866139    2.062954    0.116384
H      -0.624585    1.930331   -0.826701
H      -0.681353    1.866628    0.938370
H       0.571399   -0.313935    0.917966
H      -0.954561   -0.421222    0.058701
H       0.254636   -0.122608   -2.119146
H       2.337279    1.016011   -1.331050
H       2.792014   -0.427548   -0.411043
H       2.732913   -0.482464   -2.180384
