18

C      -0.194134    1.328080    0.149635
C      -0.127235   -0.156105   -0.058074
N       0.746959   -0.702843   -0.791565
O      -1.123935   -0.767680    0.663949
C      -1.228485   -2.158842    0.582625
C      -2.579448   -2.790446    0.744589
C      -3.604583   -1.966253   -0.030916
O      -2.800633   -2.016801   -1.241962
C      -1.849846   -2.850837   -0.596499
H       0.609192    1.809995   -0.405480
H      -1.160714    1.711616   -0.191604
H      -0.106421    1.567497    1.213919
H       0.636923   -1.715075   -0.834269
H      -0.414130   -2.703405    1.058882
H      -2.797101   -3.545257    1.487812
H      -4.552351   -2.491260   -0.184813
H      -3.783110   -0.941742    0.307898
H      -1.400250   -3.653960   -1.170471
