14

O      -0.088140    1.526121   -0.060470
C       1.336297    1.228625   -0.033236
C       1.231588    0.096697    1.011369
C      -0.044724    0.089295    0.025844
C       1.210887   -0.099779   -0.900217
N       1.852019   -0.276421   -2.179951
C       3.018560   -0.641756   -1.790452
O       3.280198   -0.865494   -0.454508
C       1.940852   -0.929873    0.114723
H       2.047952    2.046751   -0.117257
H       1.190370    0.198166    2.094282
H      -0.973175   -0.474276    0.101827
H       3.876904   -0.785248   -2.437047
H       1.681610   -1.982360    0.258248
