13

O      -0.096868    1.353840    0.111896
N       0.054048   -0.046954    0.069904
C      -1.093286   -0.630163   -0.049226
C      -2.400365    0.009354   -0.134050
C      -3.506134   -0.736751   -0.256061
O      -3.515221   -2.095333   -0.309870
C      -2.304991   -2.723343   -0.232711
C      -1.137764   -2.080734   -0.109575
H       0.814640    1.649455    0.200000
H      -2.478418    1.085922   -0.098571
H      -4.511396   -0.340875   -0.325042
H      -2.420354   -3.797538   -0.284327
H      -0.214009   -2.642465   -0.053893
