22

C      -0.101348    1.537198   -0.096864
C       0.041736    0.016798   -0.133457
N       0.713558   -0.500060    1.045679
C       2.187032   -0.274473    1.176294
C       2.624928    0.743141    2.214675
C       2.369642   -1.777113    1.501886
O       2.108981   -2.132580    2.874257
C       0.730419   -2.481935    2.574837
C       0.882567   -1.967928    1.134736
H       0.876219    2.029560   -0.110700
H      -0.660754    1.890348   -0.968724
H      -0.626609    1.851514    0.809544
H      -0.953848   -0.442599   -0.173097
H       0.561154   -0.277618   -1.068567
H       2.643037   -0.057166    0.194938
H       2.259414    0.447392    3.200536
H       3.718284    0.804870    2.253491
H       2.237181    1.738722    1.980579
H       3.230083   -2.306555    1.087466
H       0.572854   -3.564315    2.670380
H       0.013915   -1.935831    3.196567
H       0.497651   -2.557808    0.300103
