12

O       0.100433    1.302456    0.007534
C      -0.040124   -0.022947    0.001007
C      -1.192850   -0.697960    0.003413
C      -1.173975   -2.155322   -0.004823
N      -2.246551   -2.843945   -0.002817
N       0.118443   -2.760498   -0.014931
C       1.123081   -2.012509   -0.016003
F       2.347674   -2.471702   -0.025347
O       1.182975   -0.659678   -0.008979
H       1.041038    1.520808    0.003933
H      -2.134998   -0.170638    0.011361
H      -2.008542   -3.837027   -0.009528
