21

C       0.031315    1.508943    0.012717
C       0.006632    0.016115    0.002912
C       0.865134   -0.981083   -0.764171
C       0.861686   -0.990998    0.760834
C      -0.316116   -2.016528    0.753028
C      -0.710115   -3.083431    1.721146
C      -1.174675   -1.006265   -0.006700
C      -0.312333   -2.006982   -0.774729
C      -0.701413   -3.061812   -1.757947
H       1.063492    1.877242    0.018010
H      -0.465243    1.926415   -0.871638
H      -0.470192    1.914848    0.899661
H       1.684410   -0.800997   -1.449532
H       1.677877   -0.819896    1.452154
H      -0.940943   -2.665422    2.708611
H      -1.602655   -3.615193    1.372810
H       0.087431   -3.825054    1.851933
H      -2.251383   -0.882950   -0.008626
H      -0.926728   -2.631621   -2.741445
H       0.096562   -3.802118   -1.893501
H      -1.596034   -3.597408   -1.421014
