13

C       0.004211    1.516758   -0.017118
C      -0.051655    0.027080   -0.002283
C      -1.068806   -0.822096   -0.156844
C      -0.565517   -2.230579   -0.050720
O       0.836176   -2.109118    0.179299
C       1.181438   -0.781591    0.214906
O       2.306393   -0.407550    0.395036
H       0.687393    1.866659   -0.798307
H      -0.980950    1.956715   -0.187112
H       0.401443    1.894526    0.931002
H      -2.109554   -0.581008   -0.332983
H      -1.018530   -2.783634    0.782225
H      -0.728973   -2.811994   -0.967303
