22

O      -0.025234    1.480885    0.340471
C       0.007868    0.062756    0.421459
C      -1.344151   -0.495385    0.009196
C      -2.561070    0.284864    0.341317
N      -2.076050    0.206159   -1.054978
C      -1.374898   -2.006750   -0.051412
C      -2.666775   -2.725592   -0.529789
C      -1.777185   -3.731632   -1.308262
C      -0.608481   -2.716412   -1.209839
H       0.863731    1.815413    0.484497
H       0.782781   -0.348091   -0.245154
H       0.242302   -0.271937    1.444762
H      -3.498551   -0.231850    0.527325
H      -2.434407    1.224626    0.868958
H      -1.580174    1.070451   -1.263710
H      -1.052351   -2.410480    0.916780
H      -3.339835   -3.122404    0.234241
H      -3.227928   -2.079620   -1.209409
H      -1.578643   -4.636364   -0.725882
H      -2.106134   -4.028097   -2.306881
H      -0.565768   -2.068888   -2.090704
H       0.392067   -3.105767   -1.004022
