20

O      -0.588484    1.165840    0.090604
C      -0.119043   -0.150245    0.046985
C      -0.415349   -1.036555    1.221929
C       1.022279   -0.669717    0.894194
C       1.836645   -1.644157    0.054129
C       0.917340   -2.012625   -1.141027
C      -0.024364   -0.822929   -1.305478
C      -1.121978   -0.755938   -2.291953
N       0.122151    0.019821   -2.504383
H       0.157623    1.755565   -0.062779
H      -0.847879   -0.533526    2.079316
H      -0.772026   -2.048653    1.060489
H       1.533371   -0.009713    1.587430
H       2.742237   -1.141268   -0.303948
H       2.157590   -2.529018    0.613516
H       1.474813   -2.197413   -2.061322
H       0.342702   -2.917985   -0.917736
H      -1.278363   -1.571270   -2.993616
H      -2.020480   -0.211994   -2.012191
H      -0.071716    0.987306   -2.249462
