19

C       0.378918    1.254719   -0.094535
C      -0.077183   -0.208779   -0.053416
C       0.371551   -1.018112   -1.313398
C       1.568985   -1.830928   -0.819221
O       2.727358   -1.020437   -0.973320
C       1.188106   -2.045917    0.647059
O       0.595011   -0.830732    1.065498
C      -1.530173   -0.299327    0.141406
C      -2.721137   -0.367885    0.289910
H       1.454951    1.282702   -0.279731
H      -0.142610    1.798627   -0.887141
H       0.163211    1.738151    0.861215
H      -0.427193   -1.683864   -1.645081
H       0.650284   -0.365439   -2.141840
H       1.680020   -2.781332   -1.360110
H       3.451313   -1.430025   -0.489027
H       0.488068   -2.893050    0.736755
H       2.049533   -2.244338    1.294875
H      -3.771999   -0.428766    0.430580
