19

C      -0.001055    1.031966    0.844584
N      -0.146254   -0.162721    0.033110
C      -1.347872   -0.752710   -0.206273
O      -2.403905   -0.352940    0.255398
C      -1.308739   -1.965480   -1.156869
N      -2.491195   -2.801020   -1.074786
C      -2.570312   -3.599266    0.143581
C      -3.681692   -4.630541    0.036047
O      -4.227823   -5.140629    0.978461
H       0.637181    0.846671    1.715339
H       0.425893    1.858056    0.265401
H      -0.997386    1.313164    1.186863
H       0.677733   -0.567401   -0.380827
H      -1.216377   -1.574491   -2.179458
H      -0.415937   -2.575107   -0.971713
H      -3.293895   -2.176369   -1.098638
H      -1.634757   -4.170866    0.243881
H      -2.701123   -3.026865    1.073404
H      -3.941775   -4.893973   -1.014566
