23

C      -0.666621    1.463637   -0.358813
C      -0.128340    0.029214   -0.375186
C      -1.258110   -0.985898   -0.173323
C       0.869449   -0.299978   -1.540804
C       2.051558   -0.508841   -0.530051
C       2.598278   -1.937769   -0.447315
C       3.189688    0.511789   -0.632781
C       1.050637   -0.181719    0.598718
O       1.151680   -0.115741    1.791845
H       0.130882    2.199189   -0.504492
H      -1.403711    1.604953   -1.157271
H      -1.151939    1.680884    0.597913
H      -2.006028   -0.889270   -0.968362
H      -0.886873   -2.015610   -0.185382
H      -1.755922   -0.820579    0.787358
H       0.608030   -1.195152   -2.110455
H       1.023350    0.524999   -2.240738
H       3.192264   -2.172429   -1.337775
H       3.239207   -2.053482    0.432386
H       1.794516   -2.677443   -0.375762
H       2.812123    1.537383   -0.695005
H       3.843057    0.447988    0.243058
H       3.794569    0.321852   -1.526565
