18

C      -0.063661    1.535449    0.078467
C      -0.045514    0.033422    0.010683
C      -1.322204   -0.824042   -0.027742
C      -0.349781   -1.905991    0.505915
N       0.442442   -0.795252    1.210799
C       1.819414   -0.810924    0.592451
C       1.119670   -0.710449   -0.784165
C       0.486260   -2.100340   -0.765374
O       0.593571   -3.036532   -1.506217
H       0.930611    1.947907    0.276228
H      -0.416357    1.952699   -0.871131
H      -0.736899    1.871560    0.873154
H      -2.029738   -0.493657    0.736521
H      -1.831493   -1.008467   -0.976856
H      -0.661836   -2.772812    1.083511
H       2.360404    0.087396    0.897617
H       2.430761   -1.694975    0.801100
H       1.586819   -0.361775   -1.703666
