18

C       0.042788    1.577473   -0.052890
C       0.055885    0.054912    0.011536
N       0.743606   -0.507424   -1.151183
C       0.640007   -1.956681   -1.204122
C       1.232659   -2.586165    0.045042
O       1.652379   -3.720087    0.094565
N       1.236967   -1.765254    1.161554
C       0.742760   -0.462392    1.269153
N       0.800443    0.248445    2.321431
H       1.062466    1.961132   -0.138196
H      -0.532823    1.911004   -0.922886
H      -0.407443    1.991024    0.849372
H      -0.992103   -0.306574    0.073371
H       0.368085   -0.097795   -1.998992
H      -0.399854   -2.331644   -1.283012
H       1.194334   -2.351549   -2.058194
H       1.656343   -2.183932    1.982928
H       1.254580   -0.244815    3.093013
