21

C      -0.143424    1.586482   -0.121057
C      -0.001914    0.077734    0.015564
O      -1.304665   -0.482239    0.179477
C      -1.468349   -0.805550    1.583439
C      -0.090287   -0.631306    2.325574
C       0.803206   -0.631045    1.112619
C       2.106857   -0.119147    0.432244
C       1.177542   -0.647445   -0.736316
C       0.906379   -1.874473    0.157291
H       0.790924    2.091181   -0.375815
H      -0.862573    1.789918   -0.920651
H      -0.542822    2.037037    0.794805
H      -2.241467   -0.158774    2.014088
H      -1.817653   -1.841798    1.647505
H      -0.051038    0.319456    2.866634
H       0.084741   -1.440243    3.039130
H       2.322073    0.948540    0.480679
H       3.010001   -0.708954    0.604014
H       1.414972   -0.636246   -1.801815
H       1.756446   -2.536782    0.339488
H      -0.008726   -2.429833   -0.039963
