18

C      -0.176031    1.653488   -0.712579
C      -0.427740    0.149590   -0.630291
N       0.814326   -0.564699   -0.944230
C       1.722319   -0.870606    0.127087
C       0.983124   -1.986579   -0.566348
C      -0.048365   -2.724866    0.202042
O      -0.707689   -2.289797    1.126274
C      -0.300909   -4.181187   -0.216479
O       0.293510   -4.747379   -1.095189
H       0.550184    1.972302    0.042260
H       0.213223    1.930022   -1.696309
H      -1.105893    2.202392   -0.536879
H      -0.831351   -0.119733    0.353562
H      -1.168040   -0.148029   -1.381663
H       2.782417   -0.752536   -0.081911
H       1.411049   -0.655937    1.148719
H       1.491919   -2.583491   -1.315231
H      -1.091191   -4.660917    0.398810
