19

C       0.006317    1.558448    0.019077
C      -0.054913    0.062115    0.064557
C      -1.337295   -0.793385    0.062996
C      -0.630203   -1.800154    1.031819
C      -0.520574   -3.281564    0.636189
C      -1.825705   -3.936500    0.570377
N      -2.869416   -4.430659    0.523786
C       0.645291   -0.945890    0.941648
N       1.069995   -0.719157   -0.436865
H       1.029090    1.902764    0.191538
H      -0.313672    1.931336   -0.961133
H      -0.648422    2.003594    0.775552
H      -2.201160   -0.310544    0.524655
H      -1.639633   -1.178729   -0.917138
H      -1.071304   -1.732798    2.029815
H      -0.034425   -3.388740   -0.340945
H       0.105490   -3.818745    1.358485
H       1.380272   -0.811562    1.728246
H       0.799416   -1.460575   -1.081023
