10

F       0.028712    0.066792    0.002901
C      -0.017497    1.382172    0.010669
C      -1.251742    2.016720    0.031306
C      -1.162002    3.401763    0.037566
F      -2.266643    4.117177    0.056854
N      -0.029275    4.078717    0.025398
C       1.054625    3.324076    0.006116
F       2.195957    3.971033   -0.006133
N       1.145145    2.006337   -0.002206
H      -2.190828    1.484399    0.041524
