20

C      -0.105526    1.452301    0.190504
C       0.009340   -0.040186    0.112212
C       0.346206   -0.947765   -1.116876
C      -0.005101   -1.910006    0.061107
C      -0.140855   -3.403945    0.063337
C       0.873989   -1.008250    0.975742
N      -1.148994   -0.972048    0.416414
C      -2.383967   -0.925174   -0.169819
O      -2.968334    0.085883   -0.504696
H       0.849255    1.916910   -0.076303
H      -0.882885    1.810738   -0.487227
H      -0.368008    1.763840    1.206221
H      -0.363501   -0.914423   -1.946338
H       1.384288   -0.946966   -1.462267
H       0.824842   -3.865500   -0.165526
H      -0.468375   -3.762961    1.043866
H      -0.861228   -3.742639   -0.687989
H       1.946774   -1.012897    0.773749
H       0.641040   -1.036289    2.041488
H      -2.854214   -1.929694   -0.222110
