14

C      -0.018262    1.510995    0.002419
C      -0.011363    0.025012    0.001234
N      -0.040459   -0.754374   -1.059179
N      -0.021769   -2.093338   -0.673972
C       0.017673   -2.043550    0.622373
O       0.052928   -2.943051    1.631071
C       0.084676   -2.188499    2.788421
C       0.070240   -0.868155    2.520719
N       0.027035   -0.772631    1.126662
H       0.881007    1.922679    0.474717
H      -0.053387    1.852612   -1.033080
H      -0.888875    1.914371    0.532071
H       0.115602   -2.739861    3.711882
H       0.086526   -0.020509    3.182462
