19

C      -0.089080    1.520935    0.288382
C      -0.036500    0.041118    0.049429
C      -0.973601   -0.950816    0.764744
C      -1.004687   -2.249809   -0.038356
C       0.497401   -1.976253   -0.332206
C       0.525209   -1.039500    0.945265
C       0.506662   -0.689687   -1.198306
C      -0.224423   -0.612106   -2.513317
O      -0.709238   -1.545639   -3.103821
H       0.873166    1.995967    0.064787
H      -0.853872    2.007505   -0.327882
H      -0.327734    1.735772    1.335606
H      -1.703187   -0.584102    1.476444
H      -1.118275   -3.110897    0.626340
H      -1.679243   -2.346477   -0.891662
H       1.183796   -2.790329   -0.550400
H       1.163733   -0.983648    1.815343
H       1.533801   -0.337605   -1.374372
H      -0.284432    0.418970   -2.939256
