18

C      -0.079508    1.416393   -0.014132
C      -0.022432   -0.036710   -0.007232
C       0.024713   -1.241163   -0.006989
C       0.096670   -2.669335   -0.016541
C       0.595655   -3.635379    1.096920
C       0.037599   -4.524202   -0.035431
N      -1.134763   -3.570536   -0.231766
C       0.798434   -3.628829   -1.057840
O       0.384080   -3.601006   -2.374169
H       0.531460    1.833931   -0.821997
H      -1.106694    1.768939   -0.158847
H       0.285101    1.834227    0.930760
H       1.670659   -3.661961    1.302964
H       0.006550   -3.617959    2.016931
H      -0.102757   -5.604643   -0.052661
H      -1.716143   -3.552152    0.611126
H       1.888494   -3.654121   -1.026171
H      -0.584237   -3.564608   -2.329843
