12

C      -0.263887   -1.255705   -0.246620
C      -0.081409   -0.076645   -0.099926
C       0.121580    1.350173    0.085799
C      -0.172948    1.939934    1.493574
C       1.304962    2.372691    1.463946
O       1.517795    1.731671    0.186967
H      -0.419798   -2.297583   -0.381724
H      -0.367272    1.899852   -0.729853
H      -0.912758    2.740492    1.515017
H      -0.420409    1.189363    2.243669
H       1.476947    3.454508    1.408338
H       1.947885    1.949409    2.243798
