17

N       0.315270    1.455928    0.099546
C       0.089871    0.041161    0.008980
C      -0.533219   -0.706790    1.199060
C      -1.034486    0.037894    2.312261
N      -1.468545    0.682681    3.171698
C      -1.258716   -0.579409   -0.140983
C      -2.612922    0.051947   -0.418514
C      -2.856107   -1.243352   -1.226998
O      -1.515055   -1.723049   -0.934935
H       0.047769    1.926728   -0.758828
H      -0.210075    1.871894    0.861576
H       0.901453   -0.514085   -0.458323
H      -0.112582   -1.679633    1.428642
H      -3.253614    0.206390    0.450441
H      -2.572832    0.970029   -1.008615
H      -3.617977   -1.916120   -0.821044
H      -3.009037   -1.119665   -2.303186
