23

C      -0.039625    1.562928    0.033892
C      -0.030818    0.032290    0.012039
C       0.774888   -0.579296    1.167130
C       0.801751   -2.086215    1.152587
C       1.361372   -3.033523    0.063987
C       0.836922   -3.980801    1.156629
C       1.296403   -3.031321    2.313731
C      -0.089485   -3.060418    2.987214
C      -0.393852   -3.067277    1.476482
H       0.976967    1.965410   -0.039122
H      -0.620150    1.971962   -0.799022
H      -0.477624    1.943295    0.963627
H      -1.061178   -0.343267    0.053941
H       0.381760   -0.318924   -0.942209
H       1.806978   -0.202495    1.129322
H       0.360243   -0.232740    2.124161
H       0.836924   -3.050879   -0.897724
H       2.445848   -3.012655   -0.093230
H       0.843750   -5.071562    1.186284
H       2.288146   -3.012378    2.770907
H      -0.345215   -3.968555    3.543121
H      -0.388609   -2.172354    3.553447
H      -1.358818   -3.093804    0.965976
