22

C      -0.046059    1.492403   -0.048076
C      -0.100968    0.008651    0.274056
O      -1.274514   -0.532182   -0.302176
C      -1.424091   -1.904376   -0.091976
C      -1.873936   -2.450128    1.319177
C      -3.051445   -3.116091    0.604122
N      -3.836741   -1.995040    0.031227
C      -2.671832   -2.530973   -0.718196
C      -2.798368   -3.034730   -2.122514
H       0.851323    1.944975    0.384639
H      -0.028252    1.649206   -1.130395
H      -0.924290    2.003127    0.356502
H       0.789725   -0.508097   -0.124189
H      -0.102041   -0.148335    1.364906
H      -0.524520   -2.447020   -0.426882
H      -1.153491   -3.138849    1.764926
H      -2.168306   -1.685657    2.041873
H      -3.515876   -4.069753    0.824122
H      -4.664149   -2.401974   -0.406818
H      -2.897957   -2.203982   -2.830461
H      -1.917754   -3.617752   -2.413343
H      -3.678423   -3.678090   -2.233243
