16

C       0.121522    1.584063   -0.267393
C       0.030223    0.091190   -0.044232
C       1.277256   -0.791785   -0.096494
C       0.573364   -0.538753    1.189526
C       1.044437    0.043155    2.513265
C       0.247539   -1.126443    3.101497
O      -0.015718   -1.571119    4.170648
O      -0.145482   -1.602366    1.872268
H       1.038693    1.994902    0.167891
H       0.129425    1.820506   -1.336468
H      -0.727154    2.107869    0.185421
H      -0.870937   -0.381810   -0.426091
H       1.180289   -1.779164   -0.534160
H       2.240464   -0.315226   -0.253422
H       2.116359   -0.000200    2.714505
H       0.655600    1.027691    2.780791
