23

C       0.146548    1.545876   -0.211796
C       0.084597    0.025660   -0.049503
C       0.672962   -0.470851    1.272482
C       0.494952   -1.980590    1.452007
O       2.052264   -0.101738    1.270840
C       2.673308   -0.073388    2.534340
C       4.075876    0.510277    2.352017
C       4.915932    0.377578    3.600592
O       5.474687    1.286559    4.157539
H       1.178391    1.897904   -0.139340
H      -0.254755    1.855315   -1.181433
H      -0.437161    2.051089    0.566185
H      -0.954096   -0.319845   -0.113505
H       0.629224   -0.461978   -0.867686
H       0.170234    0.052908    2.104313
H       0.917219   -2.331082    2.398245
H      -0.567729   -2.242675    1.448782
H       0.987036   -2.520139    0.636434
H       2.091998    0.544248    3.238549
H       2.744784   -1.082769    2.971760
H       4.569288   -0.061293    1.553341
H       4.033446    1.559321    2.050688
H       4.995559   -0.665095    3.991076
