24

C      -0.229904    1.347736   -0.575679
C      -0.235937    0.003770    0.157563
C      -1.372557   -0.923249   -0.289036
C      -1.351910   -2.260895    0.463073
N      -2.359539   -3.264173    0.166543
C      -3.247977   -3.053390   -0.696608
O      -4.175698   -4.002094   -0.954361
C      -5.142253   -3.672389   -1.953461
C      -6.089153   -4.850137   -2.091641
H       0.591979    1.984988   -0.234565
H      -0.116618    1.208999   -1.656730
H      -1.165241    1.893989   -0.409828
H       0.725861   -0.502395    0.001768
H      -0.314522    0.177222    1.238889
H      -2.334522   -0.417234   -0.128382
H      -1.290079   -1.099453   -1.370420
H      -0.372771   -2.737861    0.313625
H      -1.406823   -2.062595    1.542987
H      -3.367321   -2.142533   -1.297550
H      -5.689347   -2.765518   -1.659488
H      -4.637585   -3.464759   -2.907579
H      -6.847168   -4.636585   -2.850938
H      -5.542364   -5.749512   -2.387282
H      -6.592683   -5.051262   -1.142291
