20

C       0.201267    1.040785   -0.464719
N      -0.267845   -0.041666    0.374825
C      -1.219050   -0.918491   -0.022242
O      -1.814722   -0.870161   -1.086741
O      -1.413757   -1.855859    0.929989
C      -2.526960   -2.761781    0.761711
C      -2.249845   -3.910815   -0.214139
C      -3.176393   -5.091595    0.073925
O      -2.445867   -3.540736   -1.562261
H       0.007867    2.015525   -0.003513
H       1.275083    0.953073   -0.663238
H      -0.339961    0.984612   -1.409385
H       0.129276   -0.182904    1.288543
H      -2.692330   -3.150569    1.768982
H      -3.409649   -2.202181    0.436045
H      -1.205212   -4.228329   -0.042651
H      -4.224993   -4.778593    0.030319
H      -3.025445   -5.860467   -0.687541
H      -2.977017   -5.528487    1.057495
H      -2.227028   -2.598535   -1.647056
