14

C       0.019524    1.451246   -0.035656
C       1.355808    0.768088    0.004967
O       1.958563    0.479700    1.249127
C       1.081626   -0.362679    1.890023
N       0.016976   -0.728772    1.293585
C       0.023893   -0.048087    0.024593
C       0.488609   -0.769716   -1.275924
O       0.757611    0.236665   -2.256501
C       1.757693   -0.030222   -1.272354
H      -0.278843    1.957521    0.875191
H      -0.271444    1.933613   -0.959440
H       1.376734   -0.636695    2.896774
H       0.208033   -1.759189   -1.616504
H       2.760323   -0.269473   -1.606388
