15

N       0.045787   -1.184542   -0.056703
C       0.013753   -0.031030   -0.114639
C      -0.003578    1.427674   -0.177511
C       1.358788    2.035970    0.214637
C       1.337084    3.525515    0.079672
N       0.592737    4.225581   -0.759461
C       0.965890    5.511742   -0.506216
N       1.886241    5.656373    0.430103
N       2.110351    4.369939    0.796198
H      -0.267850    1.750318   -1.188479
H      -0.790462    1.805221    0.483317
H       1.617192    1.751529    1.239849
H       2.138270    1.615251   -0.431683
H       0.545047    6.360321   -1.024073
H       2.784290    4.166562    1.516659
