22

C       0.017246    1.385612    0.029787
O      -0.139324   -0.006398   -0.107211
C       0.623474   -0.589097   -1.154249
C       2.122518   -0.694902   -0.838849
C       2.844595   -1.454267   -1.961088
C       2.378843   -2.917205   -2.072858
C       0.873738   -3.079131   -1.895859
N       0.385866   -3.026509   -0.506209
C       0.019963   -1.947129   -1.433887
H       1.023822    1.670850    0.368712
H      -0.188393    1.914577   -0.915267
H      -0.704764    1.718053    0.780323
H       0.501773    0.023982   -2.066890
H       2.551449    0.306475   -0.731623
H       2.238800   -1.213724    0.117967
H       2.653114   -0.939788   -2.912827
H       3.928305   -1.420940   -1.807316
H       2.677112   -3.323737   -3.045549
H       2.876882   -3.526089   -1.309524
H       0.397715   -3.801543   -2.555805
H      -0.401051   -3.655201   -0.373984
H      -1.010114   -1.910778   -1.782361
