19

C      -0.076843    1.661212    0.074616
C      -0.101453    0.136511    0.103641
C      -1.481454   -0.440610    0.419215
O      -2.504042    0.099772   -0.403532
C      -2.735830   -0.511375   -1.590910
N      -3.574236   -0.011544   -2.388038
O       0.277692   -0.403544   -1.172036
C       1.594442   -0.528466   -1.429068
N       1.981852   -0.927359   -2.561177
H       0.926448    2.025862   -0.162463
H      -0.774879    2.035047   -0.676853
H      -0.365733    2.064650    1.050177
H       0.590298   -0.242594    0.871044
H      -1.445931   -1.533648    0.331749
H      -1.752974   -0.183322    1.447000
H      -2.146652   -1.423749   -1.736024
H      -3.647999   -0.593883   -3.219630
H       2.233465   -0.270948   -0.572403
H       2.997676   -0.986826   -2.580874
