18

C       0.047975    1.562237    0.067311
C       0.009085    0.037524    0.045242
O       0.674941   -0.530058    1.169744
C      -1.433046   -0.504963   -0.057724
O      -2.121813    0.046310   -1.173877
C      -1.467698   -2.037405   -0.078909
C      -2.883016   -2.565480   -0.067449
O      -3.329459   -3.356685   -0.856622
H       1.081645    1.917147    0.088112
H      -0.458805    1.973550   -0.807931
H      -0.466769    1.946404    0.958060
H       0.569057   -0.328250   -0.826971
H       0.385473   -0.050650    1.953984
H      -1.991741   -0.145623    0.819213
H      -1.791306   -0.382353   -1.971676
H      -0.950133   -2.431337   -0.961859
H      -0.940333   -2.404212    0.810384
H      -3.514110   -2.160926    0.758738
