14

C      -0.397182   -1.171857   -0.473179
C      -0.173683   -0.021360   -0.201054
C       0.115029    1.353283    0.148831
C      -0.025183    1.807433    1.639458
C       1.241112    2.683073    1.450405
C       1.604112    1.829882    0.206902
H      -0.598827   -2.184899   -0.718262
H      -0.459523    2.029503   -0.494040
H      -0.959171    2.296672    1.923510
H       0.156637    0.968701    2.315771
H       0.986570    3.711208    1.177013
H       1.961544    2.711145    2.270209
H       2.264585    0.997747    0.462360
H       1.997621    2.337411   -0.676240
