18

C      -0.015958    1.540576   -0.011306
C      -0.012350    0.002237    0.023749
C       0.755879   -0.526681    1.247489
C      -1.426768   -0.527760    0.019508
N      -2.220532   -0.200615    1.049530
C      -3.453155   -0.694385    0.992404
N      -3.947755   -1.465417    0.022125
C      -3.071589   -1.725742   -0.948400
N      -1.813107   -1.294233   -1.010190
H       1.010807    1.918704   -0.019943
H      -0.523410    1.918535   -0.904319
H      -0.526207    1.943448    0.868164
H       0.458213   -0.377118   -0.888083
H       0.273562   -0.201355    2.173558
H       0.798803   -1.620294    1.250050
H       1.782336   -0.147700    1.239420
H      -4.122457   -0.446901    1.814246
H      -3.417419   -2.351027   -1.769420
