13

O       0.046167   -0.026258    0.043871
C       0.086504    1.172698   -0.000682
C       1.349677    1.961818   -0.002324
O       2.649986    1.339493    0.050635
C       2.911778    2.767697    0.001625
C       1.774028    3.096571   -1.033054
C       1.225194    4.157663   -0.089524
O       0.682071    5.217662   -0.142398
C       1.729450    3.172951    0.956171
H      -0.825145    1.809409   -0.044947
H       3.939430    3.121960    0.011060
H       1.816647    2.999146   -2.114230
H       1.723570    3.158861    2.042457
