27

C       0.047624    1.606231   -0.113008
C       0.013036    0.089961   -0.016796
O       0.655677   -0.448577   -1.151729
C       0.680309   -1.861772   -1.163726
C       1.399083   -2.301932   -2.435415
C       1.545887   -3.825842   -2.662957
C       0.166622   -4.505662   -2.762488
C       2.295201   -4.029531   -3.993300
C       2.361887   -4.478183   -1.530251
H       1.080433    1.964127   -0.152191
H      -0.465297    1.944476   -1.017895
H      -0.444042    2.056390    0.754652
H       0.516502   -0.250182    0.904927
H      -1.029152   -0.269858    0.039076
H       1.196410   -2.236121   -0.264086
H      -0.349060   -2.255687   -1.130787
H       0.864946   -1.862761   -3.287147
H       2.395783   -1.843493   -2.428511
H      -0.446190   -4.043863   -3.544747
H       0.276510   -5.567316   -3.010064
H      -0.390450   -4.446490   -1.822162
H       3.287459   -3.566279   -3.963066
H       2.429306   -5.095245   -4.208788
H       1.744177   -3.585298   -4.829436
H       1.847957   -4.418921   -0.565669
H       2.536622   -5.538915   -1.741900
H       3.339668   -3.996160   -1.419233
