19

C      -0.329997    1.540807   -0.132071
C      -0.013746    0.052755   -0.048264
C       1.175858   -0.640397   -0.801242
C       2.157996   -0.125012    0.279792
O       2.542699    1.224867    0.244523
C       0.879769   -0.588526    1.060390
O       0.611913   -0.475247    2.414230
C       0.967740   -1.865719    0.161784
O      -0.094666   -2.759760    0.027398
H       0.558253    2.165394   -0.087902
H      -0.857595    1.752201   -1.069027
H      -1.001457    1.821244    0.687524
H      -0.963247   -0.482065   -0.183307
H       1.352624   -0.679607   -1.873213
H       3.040273   -0.766098    0.430715
H       2.725706    1.498095    1.150007
H       1.111366   -1.150775    2.886140
H       1.858341   -2.483644    0.307993
H      -0.927818   -2.277777    0.048552
