19

O      -0.078622    1.447637   -0.016579
C       0.022649    0.048720    0.043539
C       0.132211   -0.644992    1.431401
C      -0.752126   -1.779798    0.818692
C      -1.312948   -0.699047   -0.157183
C       0.167078   -2.727085    0.079612
O       0.227716   -3.911968    0.303764
C       1.027188   -2.057361   -1.002694
C       1.096880   -0.512676   -0.899917
H       0.807883    1.822608    0.029175
H       1.123376   -0.906955    1.814106
H      -0.423159   -0.087105    2.188643
H      -1.435153   -2.325273    1.468024
H      -2.132388   -0.146739    0.307930
H      -1.599137   -0.997185   -1.169405
H       2.014336   -2.525255   -0.990638
H       0.573598   -2.350522   -1.957239
H       0.966080   -0.054705   -1.885649
H       2.083263   -0.202774   -0.530407
