18

C      -0.004318    1.474758    0.068837
C       0.078304   -0.033024   -0.063164
O       1.134015   -0.619110   -0.126577
C      -1.258384   -0.775472   -0.125070
C      -1.089799   -2.267962    0.037941
N      -1.336563   -2.828654    1.357998
C      -2.230437   -3.225241    0.248133
C      -3.640237   -2.759408    0.360022
O      -4.562190   -3.266349   -0.228280
H       0.985969    1.915128   -0.051851
H      -0.697063    1.896109   -0.667593
H      -0.397712    1.733795    1.059041
H      -1.933625   -0.370695    0.635509
H      -1.713650   -0.537797   -1.097537
H      -0.255982   -2.671651   -0.530413
H      -0.686324   -3.579817    1.570552
H      -2.125367   -4.209658   -0.201574
H      -3.782209   -1.895482    1.045966
