21

C       0.029087    1.376934    0.102571
O      -0.044340   -0.020167   -0.041103
C       0.654226   -0.549733   -1.166293
C       2.154440   -0.642869   -0.871024
C      -0.000359   -1.906618   -1.486389
C      -1.493953   -1.731645   -1.793952
C       0.705045   -2.637990   -2.636896
H       1.049113    1.733410    0.310316
H      -0.338726    1.899148   -0.795054
H      -0.606406    1.647481    0.950098
H       0.498675    0.122208   -2.029787
H       2.342368   -1.370355   -0.074457
H       2.718614   -0.942774   -1.757900
H       2.549903    0.323796   -0.546278
H       0.093105   -2.516431   -0.576798
H      -1.978151   -2.703123   -1.936813
H      -2.000088   -1.206734   -0.982098
H      -1.636163   -1.153606   -2.715792
H       1.736680   -2.905272   -2.393305
H       0.173870   -3.563682   -2.880034
H       0.721505   -2.022627   -3.545005
