18

C      -0.066097    1.554983   -0.010447
C      -0.089967    0.025310    0.026744
C       0.755261   -0.534294    1.176951
N       0.754759   -1.985479    1.239049
C      -0.246340   -2.820736    1.735707
C       0.170812   -4.078216    1.549545
O       1.407004   -4.072204    0.941823
C       1.782044   -2.757352    0.736829
O       2.812382   -2.411056    0.220965
H       0.953427    1.931962   -0.144581
H      -0.673312    1.937256   -0.835642
H      -0.459129    1.983567    0.918340
H      -1.122440   -0.331793    0.128537
H       0.291661   -0.382847   -0.915838
H       1.800762   -0.236488    1.058174
H       0.402325   -0.142854    2.138509
H      -1.148963   -2.437238    2.179813
H      -0.256938   -5.038027    1.777335
