17

O       0.045534    1.446512    0.120353
C      -0.069962    0.060239    0.055031
C      -1.382482   -0.690504    0.018895
O      -1.566697   -1.836465    0.791823
C      -2.629971    0.087887   -0.374017
C      -2.343824    0.538570   -1.793332
C      -1.166727    0.089473   -2.248266
C      -0.448942   -0.694995   -1.204112
O       0.325944   -1.813965   -1.521173
H      -0.396047    1.814468   -0.655452
H       0.702742   -0.427457    0.643917
H      -0.902629   -2.476803    0.505586
H      -3.520096   -0.549287   -0.314122
H      -2.801330    0.944039    0.290421
H      -3.020353    1.183007   -2.343387
H      -0.743143    0.284565   -3.227464
H      -0.215107   -2.402521   -2.062084
