20

C       0.340956    1.347011   -0.079492
O       0.202154   -0.042631    0.155424
C      -1.123131   -0.513568    0.114839
C      -1.853894   -0.500890   -1.256815
N      -1.504379   -1.920591   -1.448085
C      -2.510920   -2.807733   -1.985850
C      -1.127554   -2.065458   -0.032939
C      -1.908578   -0.011658    1.313761
O      -3.107567    0.092076    1.358390
H       1.401573    1.580549    0.033701
H       0.022893    1.625861   -1.092895
H      -0.231510    1.950607    0.640577
H      -2.928155   -0.314590   -1.113124
H      -1.462911    0.172616   -2.026189
H      -2.735745   -2.525021   -3.019686
H      -2.131970   -3.835240   -1.996264
H      -3.457991   -2.795437   -1.413385
H      -0.153724   -2.532108    0.145274
H      -1.894438   -2.548985    0.591311
H      -1.263020    0.222167    2.191196
