16

C       0.040588    1.526339   -0.388341
C      -0.106529    0.070422   -0.123487
N      -1.162474   -0.635382   -0.252238
C      -0.801895   -1.989567    0.068823
C       0.277273   -2.638771   -0.794839
C       0.698495   -1.929672    0.437110
O       1.028795   -0.564186    0.314575
C      -1.781095   -2.842996    0.778950
O      -1.568536   -3.989898    1.095290
H       0.717694    1.695659   -1.231788
H      -0.934607    1.953914   -0.619125
H       0.471483    2.028363    0.483013
H       0.294770   -3.721533   -0.739933
H       0.471899   -2.191361   -1.763404
H       1.155894   -2.423003    1.284602
H      -2.738712   -2.331202    1.010812
