15

C       0.055987    1.377783    0.009259
N       1.319872    1.822215   -0.000256
N       2.059916    0.695549   -0.013316
C       3.423533    0.671132   -0.026269
C       4.068703   -0.529534   -0.038858
C       3.321966   -1.739822   -0.038419
C       1.952720   -1.708560   -0.025377
C       1.280489   -0.464601   -0.012292
C      -0.040022   -0.017331    0.002536
H      -0.748776    2.098991    0.020753
H       3.900692    1.641442   -0.025487
H       5.150923   -0.546961   -0.049126
H       3.846207   -2.688524   -0.048509
H       1.364343   -2.618485   -0.024792
H      -0.929537   -0.625169    0.007595
