16

C       0.665881    0.695227    0.995489
C      -0.024138   -0.000120   -0.155781
O       0.415448   -0.005784   -1.283626
C      -1.348635   -0.685127    0.132584
C      -2.240424   -0.812579   -1.099622
C      -3.419136   -1.644677   -0.890175
N      -4.344349   -2.315383   -0.720501
C      -1.435079   -1.641243    1.258074
O      -1.980433   -0.329053    1.360340
H       1.625325    1.082572    0.652658
H       0.035970    1.513914    1.358066
H       0.817071    0.023237    1.845453
H      -2.559832    0.187587   -1.414016
H      -1.638063   -1.215797   -1.918855
H      -2.163232   -2.446932    1.197260
H      -0.558520   -1.837670    1.871947
