13

C      -0.087630    1.359232   -0.023375
O      -0.060506   -0.069715    0.050686
C      -1.225776   -0.697189    0.050024
N      -1.382573   -1.983307    0.111519
C      -2.758850   -2.133578    0.080472
O      -3.318543   -3.354647    0.127290
C      -3.374385   -0.931485    0.001537
O      -2.352874    0.025012   -0.018716
H       0.956554    1.669938   -0.009904
H      -0.567760    1.693744   -0.947492
H      -0.617913    1.785087    0.833283
H      -2.591724   -3.987133    0.180173
H      -4.384063   -0.572763   -0.045279
