13

C      -0.017657    1.481993    0.086613
C      -0.005030   -0.006797   -0.047581
N      -0.100480   -0.610716   -1.167798
C      -0.083540   -2.020920   -1.239563
O      -0.172001   -2.620858   -2.284138
C       0.050825   -2.683268    0.067050
F       0.076249   -4.006281    0.101775
C       0.145197   -1.968648    1.194977
O       0.119933   -0.609039    1.170243
H       0.906556    1.826774    0.560770
H      -0.117856    1.931771   -0.899397
H      -0.848793    1.796868    0.725352
H       0.246011   -2.378194    2.190748
