16

C      -0.010022    1.507400    0.035857
C      -0.055590    0.022658   -0.067341
C       0.540383   -0.981400   -1.093877
C       0.838267   -1.889564    0.058622
N       0.287416   -0.900782    1.077861
C      -1.048498   -0.989127    0.382974
C      -0.508036   -2.032156   -0.635774
C      -1.088890   -3.096512   -1.354286
C      -1.599591   -4.005365   -1.958353
H       1.022192    1.872840    0.003603
H      -0.566909    1.977730   -0.781899
H      -0.453427    1.827002    0.983893
H       0.987898   -0.886205   -2.072956
H       1.617446   -2.617059    0.246873
H      -1.989876   -0.905575    0.913076
H      -2.046557   -4.807021   -2.491612
