16

C       0.115684    1.373252   -0.151604
N      -0.143727   -0.017417    0.167611
C       0.566255   -0.659517    1.149337
N       0.655939   -1.981374    1.165477
N       1.371167   -2.258802    2.299326
C       1.691580   -3.556214    2.693255
O       1.384208   -4.557429    2.109989
C       1.732234   -1.116862    2.971615
C       1.238546   -0.059642    2.268773
H       1.146251    1.564989   -0.486708
H      -0.568342    1.685199   -0.943603
H      -0.083455    2.006124    0.719269
H      -0.367372   -0.617418   -0.612499
H       2.277476   -3.532775    3.631833
H       2.305030   -1.165016    3.884599
H       1.332940    0.985942    2.509568
