15

N       0.087490    1.464898    0.066405
C       0.029007    0.061099    0.009720
C      -1.285348   -0.627740    0.061776
N      -2.442122    0.212553    0.062031
C      -0.514852   -0.723560   -1.283627
C      -0.949853    0.084827   -2.383016
N      -1.277151    0.764243   -3.260264
C       0.100599   -1.979038   -1.597588
N       0.616612   -2.996268   -1.794567
H       0.887446    1.846126   -0.424557
H      -0.765612    1.887935   -0.283013
H       0.874767   -0.452289    0.454841
H      -1.311600   -1.582953    0.587776
H      -3.251356   -0.261144   -0.323843
H      -2.665793    0.509891    1.006085
