21

C      -0.044462    1.460190   -0.037310
C       0.011639   -0.056509    0.013636
O       0.707964   -0.438854    1.184808
C       0.818947   -1.819326    1.333058
C       1.578964   -2.161331    2.612803
O       2.003863   -1.312987    3.358209
C       1.758378   -3.648275    2.874495
C       2.521049   -3.937357    4.158941
O       2.615998   -5.349326    4.279573
H       0.965063    1.879800   -0.056400
H      -0.577632    1.791236   -0.933474
H      -0.561534    1.853574    0.842156
H      -1.005807   -0.483769    0.020492
H       0.521643   -0.457475   -0.879067
H      -0.170952   -2.311671    1.376965
H       1.349076   -2.285663    0.481172
H       0.773311   -4.131998    2.910128
H       2.277576   -4.106816    2.022572
H       3.511787   -3.463815    4.113236
H       1.990427   -3.489434    5.010814
H       3.096777   -5.546619    5.088534
