16

C      -0.005488    1.496156    0.458383
C       0.042781    0.026289    0.125645
C      -1.150524   -0.704303   -0.314223
O      -0.143526   -0.320765   -1.251413
N       1.292760    2.113500    0.218256
C       1.544469    2.549485   -1.153811
C       1.283379    3.542811   -0.076076
H      -0.816156    1.964234   -0.128556
H      -0.249620    1.620711    1.521470
H       0.840759   -0.529588    0.618239
H      -1.231715   -1.773102   -0.122143
H      -2.100153   -0.178036   -0.407043
H       2.553780    2.386753   -1.519992
H       0.760048    2.382372   -1.888207
H       0.322055    4.054610   -0.092010
H       2.096624    4.118566    0.356358
