20

C      -0.221186    1.754865   -0.252908
C      -0.222581    0.233573   -0.065436
C       0.747905   -0.519395   -0.985595
O       0.424649   -0.311105   -2.360613
C       2.245560   -0.162664   -0.732876
N       2.935540   -1.391649   -1.056624
C       2.148857   -2.512533   -1.091716
O       2.530852   -3.643930   -1.288450
C       0.720861   -2.043966   -0.802383
H       0.763400    2.192566   -0.054486
H      -0.519877    2.035579   -1.269024
H      -0.932439    2.228838    0.429193
H       0.022457   -0.008063    0.975764
H      -1.229626   -0.156028   -0.252658
H       0.544979    0.622133   -2.564108
H       2.564969    0.663910   -1.377848
H       2.412262    0.142662    0.310726
H       3.935738   -1.467249   -1.148242
H       0.463819   -2.326798    0.223856
H       0.007684   -2.516418   -1.478573
