16

N      -0.200104    1.415263    0.188954
C      -0.093005   -0.013064    0.144165
C      -0.783087   -0.793911    1.215630
C      -1.370814   -0.813378   -0.188142
C      -2.666259   -0.046249   -0.450989
C      -3.824341   -0.631268    0.223528
N      -4.733505   -1.086423    0.772090
C      -1.186297   -2.008421   -0.968544
N      -1.024083   -2.956785   -1.611132
H       0.312359    1.790429    0.979972
H       0.175194    1.840479   -0.651991
H       0.815121   -0.456705   -0.262736
H      -0.321434   -1.701230    1.584137
H      -1.353886   -0.234633    1.949180
H      -2.522350    0.980566   -0.099373
H      -2.866446    0.000476   -1.526300
