18

C       0.749577    1.608161   -0.132467
O       0.781954    0.211141    0.039013
C      -0.153926   -0.462492   -0.767462
C      -0.011320   -1.949902   -0.484152
O      -0.948362   -2.632690   -1.290583
C      -0.922137   -4.025482   -1.125249
C      -1.968644   -4.632836   -2.043268
O      -2.180425   -5.813071   -2.123698
H       0.979640    1.897282   -1.170025
H      -0.233777    2.028819    0.130441
H       1.505734    2.036228    0.529774
H      -1.183532   -0.138798   -0.543308
H       0.025928   -0.269345   -1.837720
H       1.016023   -2.275578   -0.710337
H      -0.193302   -2.144894    0.584265
H       0.062600   -4.455049   -1.377019
H      -1.145110   -4.324546   -0.086733
H      -2.526968   -3.878435   -2.640454
