17

C      -0.226534    1.494769   -0.047855
C      -0.021574   -0.000851    0.015973
O      -1.268626   -0.671946   -0.002649
C      -1.064855   -1.904880    0.652652
O      -0.109030   -1.683305    1.670506
C       0.766844   -0.678880    1.195672
C       1.885445   -1.158801    0.225155
C       1.062761   -0.597934   -0.950982
O       1.183146   -0.613281   -2.139338
H       0.728015    2.023872    0.029910
H      -0.689335    1.766879   -1.000547
H      -0.879194    1.818705    0.767814
H      -2.004539   -2.228623    1.107001
H      -0.706152   -2.668127   -0.060026
H       1.082174   -0.063797    2.038466
H       2.846169   -0.650448    0.354976
H       2.062046   -2.237762    0.202902
