21

C       0.017384    1.586252    0.001733
C       0.018265    0.054900   -0.003957
C       0.663736   -0.511827   -1.279145
C       0.678865   -2.056790   -1.291522
C       1.322138   -2.579228   -0.018432
O       2.299040   -3.294422   -0.013585
C       0.691603   -2.047957    1.262808
C       0.720947   -0.506790    1.253548
O       2.056597   -0.021558    1.368504
H       1.041884    1.966334    0.036834
H      -0.470919    1.984318   -0.893424
H      -0.514178    1.977261    0.875775
H      -1.024010   -0.296324    0.036806
H       0.136665   -0.142563   -2.164881
H       1.693304   -0.139579   -1.352620
H      -0.354918   -2.426006   -1.336233
H       1.221426   -2.453273   -2.152745
H      -0.351420   -2.383872    1.314609
H       1.231448   -2.443293    2.126583
H       0.198713   -0.134279    2.143169
H       2.661750   -0.660078    0.977300
