17

C       0.020338    1.439233   -0.190363
C       0.049483   -0.059415    0.021110
O       1.072655   -0.689960    0.178431
C      -1.247091   -0.716322    0.025584
C      -2.320487   -1.270838    0.015376
C      -3.593145   -1.977725    0.076845
O      -3.450998   -3.388359   -0.112883
C      -4.325177   -1.717325    1.411943
O      -5.523915   -2.448896    1.448628
H       1.038916    1.829310   -0.175150
H      -0.458500    1.674523   -1.147001
H      -0.577336    1.918384    0.592662
H      -4.249393   -1.646522   -0.736405
H      -2.669238   -3.673922    0.374816
H      -3.648251   -1.981219    2.241698
H      -4.574472   -0.655945    1.504006
H      -5.295993   -3.340817    1.154485
