19

C      -0.053490    1.516577   -0.023439
C       0.009302    0.010876    0.012405
N       0.118137   -0.618155   -1.165761
C       0.172288   -1.945477   -1.167024
C       0.131177   -2.744886   -0.018144
N       0.264289   -4.135288   -0.102755
C       0.019449   -2.094329    1.221492
C      -0.018240   -2.883476    2.502131
C      -0.042890   -0.703459    1.209701
H       0.845340    1.929986   -0.492907
H      -0.907601    1.853800   -0.620130
H      -0.144583    1.940270    0.980187
H       0.258065   -2.425402   -2.142570
H       0.081421   -4.506738   -1.024872
H      -0.246382   -4.653636    0.598116
H       0.851505   -3.546164    2.584193
H      -0.030194   -2.223896    3.372814
H      -0.911359   -3.520949    2.561696
H      -0.129948   -0.169174    2.151354
