19

C      -0.131192    1.574969    0.057800
C       0.067374    0.067726   -0.004510
C       0.819795   -0.607578   -1.211546
C       2.102435    0.192222   -1.531558
C       3.033390    0.154244   -0.303011
O       2.324821    0.206823    0.936945
C       1.144977   -0.584986    0.926047
C       1.198257   -1.683548   -0.176532
O       1.268916   -2.876867   -0.175559
H       0.821675    2.103883    0.122421
H      -0.675499    1.940155   -0.819329
H      -0.714050    1.841917    0.945254
H      -0.887389   -0.449038    0.143613
H       0.256455   -0.899073   -2.099012
H       2.625788   -0.254146   -2.383362
H       1.840770    1.217412   -1.810387
H       3.622234   -0.775277   -0.333934
H       3.732270    0.994212   -0.291415
H       0.900187   -0.847646    1.956085
