17

C       0.071339    1.520852    0.092594
C      -0.077513    0.033853    0.120700
C      -1.350183   -0.802931   -0.086292
C      -0.768159   -1.853846    0.935041
O      -0.539356   -3.167609    0.507467
C       0.499827   -1.012095    1.038518
O       1.011761   -0.778477   -0.283740
C       1.408217   -0.842819    2.185463
O       1.187889   -1.298957    3.281872
H       1.069771    1.820642    0.418953
H      -0.080205    1.892915   -0.927098
H      -0.672671    1.998132    0.737347
H      -2.269693   -0.324205    0.257565
H      -1.469388   -1.172748   -1.106776
H      -1.309235   -1.813279    1.888397
H      -1.363452   -3.659049    0.576891
H       2.313800   -0.238819    1.961470
