21

C      -0.036505    1.343214   -0.036496
O       0.006179   -0.062206   -0.006000
C       0.677003   -0.566649    1.126515
C       0.662207   -2.087772    1.054784
C       1.366279   -2.730739    2.240587
O       1.301665   -4.134548    2.086540
C       1.933196   -4.822102    3.147091
C       1.837269   -6.260957    2.938444
C       1.773190   -7.450949    2.792059
H       0.973261    1.783845   -0.062374
H      -0.571497    1.635336   -0.943385
H      -0.566181    1.756612    0.837003
H       1.715044   -0.189555    1.156916
H       0.184307   -0.216852    2.051476
H      -0.374288   -2.437983    1.015960
H       1.146514   -2.410924    0.127694
H       2.418915   -2.401069    2.294591
H       0.887534   -2.428714    3.188859
H       2.995034   -4.528691    3.220712
H       1.467805   -4.556148    4.112330
H       1.712454   -8.502341    2.655775
