13

N       0.113076    1.304617    0.146058
C      -0.056998   -0.052243    0.043484
N      -1.163659   -0.727907    0.018303
C      -0.714522   -2.058119    0.017301
C       0.633146   -2.046816    0.032835
O       1.222371   -3.238944   -0.006070
C       0.132625   -4.113263   -0.041037
C      -1.062526   -3.449984   -0.029737
O       1.129085   -0.786388    0.048202
H       0.934875    1.663577   -0.319035
H      -0.728992    1.814009   -0.080302
H       0.402366   -5.154513   -0.060526
H      -2.035399   -3.914691   -0.051848
