19

N       0.070731    1.203862    0.720325
C      -0.085269   -0.071277    0.135272
C      -1.133907   -0.687124   -0.510196
C      -0.722698   -2.021437   -0.803826
C       0.562571   -2.187234   -0.340839
N       0.935986   -0.983333    0.231432
C       1.495520   -3.330332   -0.401792
C       1.760421   -4.184969    0.827659
C       0.966375   -4.739670   -0.324623
H       0.648583    1.818770    0.153202
H      -0.830634    1.652265    0.830385
H      -2.079098   -0.227638   -0.757329
H      -1.296525   -2.771684   -1.326589
H       1.776705   -0.828980    0.761504
H       2.357913   -3.195559   -1.053308
H       2.768264   -4.553258    0.985837
H       1.221475   -3.935094    1.734657
H      -0.100821   -4.863997   -0.183520
H       1.426812   -5.490678   -0.956370
