20

C       0.048552    1.619217    0.082223
C       0.004261    0.089502    0.029987
C       0.669051   -0.477638   -1.227840
C       0.653198   -2.016373   -1.298742
C      -0.681769   -2.669473   -1.569345
C      -0.579295   -3.419604   -2.670664
N       0.716499   -3.361663   -3.206354
C       1.528641   -2.522494   -2.464982
O       2.680198   -2.243477   -2.709818
H       1.080901    1.985212    0.063372
H      -0.473048    2.059709   -0.774702
H      -0.424729    2.001046    0.992155
H       0.501577   -0.323241    0.917820
H      -1.039345   -0.246447    0.081299
H       0.175945   -0.073615   -2.121284
H       1.716726   -0.157634   -1.276627
H       1.099639   -2.405534   -0.371677
H      -1.567076   -2.557751   -0.962485
H      -1.324832   -4.031941   -3.157860
H       1.023061   -3.802595   -4.057316
