17

O       0.083831    1.316738    0.238363
C       0.009828   -0.089246    0.079611
C      -1.433431   -0.581499   -0.073798
C      -1.516222   -2.072282   -0.316157
O      -1.036921   -2.854711    0.849716
C      -2.273907   -3.394757    1.066742
O      -2.633386   -4.087547    1.964128
C      -2.897907   -2.751623   -0.184324
O      -3.976941   -1.881181    0.018892
H      -0.302237    1.538986    1.091534
H       0.580104   -0.315530   -0.828655
H       0.497777   -0.619524    0.909969
H      -2.017534   -0.329973    0.818442
H      -1.905081   -0.063634   -0.916781
H      -0.946186   -2.378615   -1.197601
H      -3.096593   -3.488642   -0.974710
H      -4.670984   -2.369576    0.475853
