13

N       0.082964    1.392666    0.153168
C       0.001126    0.007362    0.031934
C      -1.078771   -0.857364   -0.003142
N      -0.629734   -2.173804   -0.031994
C       0.671220   -2.099446   -0.023932
N       1.112053   -0.795786    0.016650
C      -2.436851   -0.470872   -0.003339
C      -3.580386   -0.087998   -0.006476
H       0.582174    1.837047   -0.610737
H      -0.848059    1.789954    0.209937
H       1.357355   -2.932130   -0.058562
H       2.062941   -0.478897    0.108500
H      -4.594416    0.225525   -0.004369
