17

C      -0.038088    1.530179   -0.043868
C      -0.023055    0.017319    0.078631
O       0.521662   -0.495105   -1.160342
C       0.766342   -1.827789   -1.273229
O       0.951672   -2.313891   -2.358601
C       0.881004   -2.596273   -0.009640
C       0.914710   -1.997321    1.182709
C       0.766162   -0.500292    1.287093
O       2.036815    0.118311    1.455720
H       0.980985    1.919633   -0.086426
H      -0.573845    1.827414   -0.948085
H      -0.538783    1.971698    0.822904
H      -1.049316   -0.364474    0.171616
H       1.026641   -3.662109   -0.141962
H       1.110791   -2.557609    2.092252
H       0.202617   -0.238155    2.189196
H       2.586621   -0.140524    0.706600
