20

C       0.027817    1.584518   -0.041749
C       0.102967    0.056012   -0.057273
C       0.626254   -0.533653    1.266015
C       0.713424   -2.031626    1.268053
C      -0.074551   -2.893097    1.988165
N       0.314314   -4.188681    1.684376
C       1.339090   -4.145820    0.787663
O       1.861626   -5.330257    0.375161
C       1.622681   -2.834159    0.496518
H       1.013548    2.028841    0.137939
H      -0.345377    1.977246   -0.992985
H      -0.641232    1.940402    0.750128
H      -0.887795   -0.366385   -0.264828
H       0.750054   -0.275111   -0.878960
H       1.613796   -0.099112    1.476648
H      -0.027892   -0.208197    2.084900
H      -0.872471   -2.703748    2.687420
H      -0.063472   -5.035835    2.070090
H       2.567063   -5.144112   -0.251239
H       2.385772   -2.481464   -0.181158
