19

C       0.436081    1.243955    0.382856
O      -0.354250    0.450085   -0.475058
C       0.399563   -0.333725   -1.381738
C       1.083950   -1.571403   -0.768431
C       0.664349   -2.740980   -1.674405
O       1.105220   -3.865767   -1.627382
C      -0.365831   -2.219205   -2.595038
C      -0.545531   -0.900695   -2.429518
C      -1.503484   -0.001141   -3.133212
H       1.070359    0.635661    1.043942
H       1.085877    1.928381   -0.184863
H      -0.247966    1.832982    0.998008
H       1.142571    0.314462   -1.880667
H       2.172264   -1.509627   -0.698567
H       0.691281   -1.749542    0.238325
H      -0.883676   -2.854202   -3.303626
H      -2.122272   -0.543725   -3.851043
H      -2.149490    0.497008   -2.402898
H      -0.966547    0.794805   -3.664759
