19

C      -0.543946    1.428423   -0.152577
C       0.009224    0.031409    0.056147
O       0.333641   -0.369101    1.155915
C       0.135455   -0.809196   -1.173370
C       1.191601   -1.900313   -1.200148
C      -0.245939   -2.297618   -1.149290
C      -0.831379   -2.949323    0.060115
C      -2.208704   -3.458996    0.055950
O      -1.102238   -4.350999   -0.082996
H       0.098137    1.989889   -0.841269
H      -1.536143    1.377951   -0.615782
H      -0.606360    1.951702    0.801878
H      -0.074676   -0.297619   -2.106596
H       1.746952   -2.043496   -2.119621
H       1.763607   -2.002724   -0.284028
H      -0.684741   -2.654256   -2.076934
H      -0.387639   -2.666377    1.010543
H      -2.760769   -3.535114    0.991795
H      -2.824839   -3.337766   -0.835095
