18

C       0.604233    1.110472    0.614154
C       0.232377   -0.154392   -0.122016
O       1.024820   -0.730270   -0.838309
C      -1.205849   -0.676655    0.029311
C      -1.342998   -2.107391   -0.551934
O      -1.095300   -2.147697   -1.934940
C      -1.657911   -0.674610    1.489627
N      -2.979321   -0.401419    1.687760
O      -0.898257   -0.935234    2.404559
H       1.555426    1.489472    0.239349
H      -0.176857    1.871098    0.507937
H       0.687338    0.878657    1.680215
H      -1.843634   -0.008680   -0.566843
H      -0.673908   -2.772793    0.012080
H      -2.368260   -2.461113   -0.399828
H      -0.165148   -1.900167   -2.029508
H      -3.622991   -0.281552    0.925398
H      -3.350488   -0.514182    2.617707
