19

C      -0.003202    1.479884   -0.048295
C       1.372938    2.174463    0.028918
C       1.843376    2.501730    1.448367
O       1.698084    1.396137    2.346323
C       2.381342    0.271423    1.968805
N       1.843486   -0.772191    1.517464
C       0.391310   -0.750806    1.306788
C      -0.011063   -0.062373   -0.011434
H      -0.653699    1.868040    0.746316
H      -0.475891    1.773188   -0.992951
H       2.124917    1.560009   -0.480739
H       1.340183    3.126095   -0.515844
H       2.887934    2.848754    1.438073
H       1.229217    3.293226    1.887175
H       3.464995    0.326602    2.107135
H       0.062982   -1.793622    1.264166
H      -0.128219   -0.270192    2.144799
H      -1.030160   -0.391354   -0.249354
H       0.630050   -0.448639   -0.814186
