21

C       1.127078    1.685718    0.673878
C       0.472531    0.432152    0.056785
C       1.196969    0.030181   -1.223426
C       0.513797   -0.976267   -2.174127
C       0.609770    0.158423   -3.212225
O       1.131953    1.075767   -2.227015
C       0.475654   -0.718617    1.062883
C      -0.627534   -0.719797    2.105722
O       1.317884   -1.588768    1.026506
H       2.151807    1.468741    0.992401
H       1.159512    2.478964   -0.076823
H       0.569842    2.053122    1.540343
H      -0.568585    0.679064   -0.191974
H       2.236858   -0.225652   -0.990139
H       1.073928   -1.885878   -2.390046
H      -0.505872   -1.243199   -1.886785
H       1.327120   -0.015297   -4.024428
H      -0.332745    0.514215   -3.644483
H      -1.583009   -0.952208    1.619638
H      -0.420697   -1.473339    2.866630
H      -0.740966    0.264869    2.569998
