16

C       0.210988    1.460517   -0.042070
C      -0.001911   -0.012463   -0.001205
N      -0.400706   -0.690056   -1.045596
O      -0.467210   -2.012675   -0.568028
C      -0.097478   -1.968470    0.720846
N       0.205823   -0.773803    1.131754
C      -0.068988   -3.220054    1.485768
C      -1.133942   -4.245504    1.258769
N       0.231803   -4.494927    0.805503
H       1.246006    1.699391    0.219690
H      -0.008130    1.849415   -1.037326
H      -0.434408    1.955719    0.689489
H       0.367442   -3.105716    2.471417
H      -1.460119   -4.848437    2.100992
H      -1.900079   -4.015631    0.524343
H       0.298948   -4.333292   -0.197189
