13

O      -0.464525    0.661696   -0.708868
C       0.149428    1.019553    0.256533
C       1.336455    1.999540    0.181068
C       1.436190    2.680175   -1.205866
C       2.682540    3.409401   -1.382356
C       3.721612    3.998935   -1.505700
C       1.252462    2.949433    1.289758
N       1.141177    3.681428    2.176762
H      -0.079310    0.652329    1.277583
H       2.237187    1.388496    0.343832
H       1.331205    1.894263   -1.960159
H       0.577154    3.346839   -1.337343
H       4.633185    4.530849   -1.624896
