17

C       0.188273    1.393347   -0.625536
C       0.041306    0.023103   -0.154924
C      -0.080381   -1.106387    0.243128
C      -0.223162   -2.482529    0.712535
C      -1.504404   -3.146612    0.274051
N      -2.130549   -3.985883    1.096192
N      -3.190999   -4.421789    0.387805
C      -3.259722   -3.881084   -0.852225
C      -2.174101   -3.041225   -0.967251
H       0.891992    1.456758   -1.463117
H      -0.769427    1.802056   -0.966749
H       0.561390    2.049077    0.169135
H       0.633345   -3.073273    0.356793
H      -0.179116   -2.522010    1.806833
H      -3.830233   -5.068142    0.817313
H      -4.058027   -4.126373   -1.534880
H      -1.902066   -2.430045   -1.811561
