18

C      -0.070374    1.534547   -0.047782
N       0.093831    0.085218   -0.004581
C       0.773806   -0.580001   -1.109177
C       2.310421   -0.584127   -0.842957
C       2.512802    0.104351    0.503600
C       1.131091   -0.502305    0.893147
C       0.743628   -0.776237    2.310736
O       1.535007   -0.916441    3.210019
C       1.383174   -1.612303   -0.228179
H       0.836470    2.091246   -0.327030
H      -0.851238    1.774957   -0.776542
H      -0.408244    1.889379    0.931544
H       0.344637   -0.676183   -2.099240
H       3.031277   -0.740659   -1.635463
H       3.297291   -0.379868    1.087521
H       2.629165    1.191047    0.554197
H      -0.353191   -0.868352    2.470982
H       1.353989   -2.691367   -0.209676
