14

N      -0.002194   -1.133655    0.022006
C      -0.015745    0.020692    0.033533
C      -0.002830    1.474749   -0.010252
O      -0.604990    2.076528    1.144592
C      -0.385461    3.430071    0.702743
C       1.145007    3.391410    0.463706
C       1.394371    2.168259    0.014716
C      -1.073110    3.376198   -0.684763
C      -0.836850    2.153055   -1.140809
H      -0.765829    4.145940    1.427866
H       1.818600    4.226506    0.586952
H       2.309531    1.708397   -0.325039
H      -1.571594    4.203234   -1.168321
H      -1.082434    1.685257   -2.081705
