18

O       0.144653    1.377584   -0.071889
C       0.063543   -0.027787   -0.042270
C       0.363336   -0.667170    1.361857
C      -1.117511   -1.088301    1.444780
C      -2.237398   -0.666527    2.362219
O      -3.252030   -0.145013    1.493885
C      -2.678234    0.322302    0.260357
C      -1.407543   -0.469930    0.108979
N      -1.535471   -1.906437    0.309407
H       1.073029    1.628896   -0.032202
H       0.589040   -0.475635   -0.899717
H       1.103344   -1.471792    1.425600
H       0.617157    0.119259    2.076906
H      -2.700582   -1.474868    2.935918
H      -1.868976    0.100295    3.062134
H      -3.429402    0.150137   -0.515710
H      -2.437483    1.393135    0.301543
H      -0.760827   -2.425764   -0.097646
