20

C      -0.381986    1.348506    0.052548
N       0.009607   -0.054147    0.188714
C       1.300324   -0.534546   -0.340730
C       2.338938    0.342970   -0.937973
O       2.532622    1.513968   -0.695000
C       0.995694   -0.490640    1.153773
C       1.698510    0.471115    2.088453
C       0.599472   -1.816233    1.796068
O      -0.438798   -1.623784    2.740431
H       0.444752    2.063169    0.064608
H      -0.918923    1.459063   -0.894441
H      -1.078502    1.583174    0.863440
H       1.236715   -1.501780   -0.837702
H       2.973983   -0.188035   -1.682254
H       1.970773    1.407455    1.604111
H       1.047084    0.675207    2.943536
H       2.613444    0.010860    2.475613
H       0.300906   -2.529096    1.014848
H       1.443652   -2.243526    2.347172
H      -1.192269   -1.283826    2.243519
