21

C      -0.175706    1.532091   -0.056036
C      -0.263330    0.020005   -0.274387
C       0.975096   -0.551933   -0.989351
C       0.900178   -2.031844   -1.214607
N       1.626287   -2.867895   -0.475329
N       1.291124   -4.097162   -0.925929
C       0.377699   -4.077857   -1.931313
C      -0.131830   -5.320302   -2.585842
C       0.099256   -2.742974   -2.143914
H       0.695981    1.793855    0.554152
H      -0.082503    2.066176   -1.008606
H      -1.065720    1.914117    0.453911
H      -0.381640   -0.491096    0.688547
H      -1.160659   -0.219252   -0.858757
H       1.100817   -0.037567   -1.951246
H       1.870552   -0.339983   -0.395424
H       1.733320   -4.901802   -0.515025
H      -0.640674   -5.979009   -1.872386
H      -0.847926   -5.063178   -3.368937
H       0.675702   -5.898803   -3.049605
H      -0.585708   -2.339948   -2.873562
