15

C       0.011381    1.548970    0.042046
C      -0.014620    0.049896    0.018021
C      -1.143105   -0.684734   -0.143924
F      -2.351444   -0.161284   -0.299381
N      -1.132671   -2.041050   -0.161101
C       0.037243   -2.794100   -0.013962
N      -0.044580   -4.072434   -0.042490
C       1.205459   -1.925174    0.155173
N       1.175488   -0.633638    0.168833
H       0.652557    1.938511   -0.755865
H      -0.990698    1.962876   -0.087174
H       0.417385    1.914587    0.991254
H      -1.999801   -2.545980   -0.284727
H       0.878233   -4.486057    0.076044
H       2.168303   -2.418314    0.278004
