20

C      -0.449002    0.911519   -0.002085
O       0.411948   -0.199234    0.202157
C       0.935256   -0.703057   -0.975079
C       1.253001   -2.170468   -0.972226
C       0.104624   -1.647440   -1.809868
O      -1.213467   -1.853930   -1.379684
C      -1.691766   -3.115605   -1.501433
N      -2.899086   -3.362343   -1.258931
C      -3.336500   -4.736151   -1.390550
H       0.078783    1.740879   -0.496574
H      -1.323269    0.632720   -0.601123
H      -0.776018    1.241028    0.986396
H       1.596455   -0.023371   -1.516261
H       2.147483   -2.529446   -1.468053
H       0.980263   -2.691151   -0.061050
H       0.216817   -1.619851   -2.891760
H      -0.937491   -3.853592   -1.812571
H      -4.153505   -4.793036   -2.118848
H      -2.542476   -5.432858   -1.706352
H      -3.739666   -5.086751   -0.433618
