18

C      -0.015437    1.487320    0.051601
C      -0.065869   -0.000394   -0.026043
C      -0.079157   -0.822971   -1.078338
C       0.011139   -2.230764   -0.504832
C       1.479509   -2.432974   -0.002736
C       1.493881   -1.475338    1.224703
C       0.026421   -0.933299    1.184026
O      -0.688844   -2.090606    0.740204
H       0.897031    1.828448    0.558373
H      -0.037912    1.943891   -0.941652
H      -0.858519    1.885623    0.630218
H      -0.042196   -0.567553   -2.129409
H      -0.407690   -3.046799   -1.092676
H       1.634869   -3.470784    0.301660
H       2.221586   -2.181335   -0.763448
H       1.667285   -2.022271    2.154222
H       2.238901   -0.679336    1.151294
H      -0.373992   -0.568538    2.130319
