17

N      -0.044765   -1.171639   -0.127477
C      -0.037530   -0.017596   -0.059330
C      -0.010140    1.442220    0.033325
C      -0.597580    1.958957    1.389126
C       0.635904    2.276531    2.227259
C       1.879746    1.877393    1.543804
C       1.439871    1.979080    0.063472
C       1.409082    3.507323    0.299801
N       1.587514    3.339179    1.782248
H      -0.559837    1.847119   -0.823184
H      -1.227638    2.838894    1.229208
H      -1.214476    1.201497    1.877010
H       0.563426    2.230508    3.307900
H       2.730897    1.360227    1.968302
H       2.084772    1.592451   -0.723276
H       2.290107    4.017766   -0.094088
H       0.511584    4.057933   -0.006163
