19

C       0.357083    1.376104    0.065463
N       0.380978   -0.073915    0.011138
C       0.338844   -0.648654   -1.112202
O       0.227357    0.032350   -2.295172
C       0.644171   -0.605474   -3.509415
C       1.727910   -1.649069   -3.232939
C       1.108230   -2.656221   -2.289170
C       1.522109   -2.795592   -0.863810
N       0.313914   -2.052441   -1.212741
H       0.806698    1.860014   -0.810967
H      -0.675445    1.741194    0.149120
H       0.887920    1.705907    0.963919
H      -0.224077   -1.077254   -3.988380
H       0.999168    0.199044   -4.159334
H       2.052830   -2.118035   -4.165811
H       2.597734   -1.157728   -2.783519
H       0.613405   -3.500738   -2.765610
H       1.354723   -3.732465   -0.341304
H       2.371559   -2.215868   -0.513015
