20

C       0.124830    1.329995   -0.542932
C       1.420256    1.615264    0.261874
C       1.371810    0.165831    0.828099
C      -0.121974    0.100895    0.370361
C       2.286107   -0.809881    0.077830
C       2.194606   -2.178579    0.737122
O       2.502978   -2.095442    2.136909
C       2.097887   -0.961205    2.755694
N       1.570129    0.080420    2.267150
H      -0.641391    2.107504   -0.543914
H       0.326860    1.048558   -1.580063
H       2.318346    1.900072   -0.293672
H       1.256526    2.332243    1.069301
H      -0.782813    0.335393    1.207764
H      -0.458182   -0.831513   -0.094490
H       2.015530   -0.887608   -0.980602
H       3.321577   -0.451502    0.127227
H       1.183811   -2.595028    0.632334
H       2.905178   -2.894368    0.317411
H       2.294373   -1.037706    3.823971
