17

O       0.104379    1.392837   -0.024668
C       0.027285   -0.021976    0.038167
C       0.612433   -0.554958    1.393821
C      -0.653746   -0.718540    2.160119
C      -1.791721   -0.700957    1.424113
C      -1.463355   -0.509544   -0.029855
C      -2.862444   -0.939669    2.346333
C      -2.263959   -1.076710    3.563809
O      -0.901461   -0.948132    3.469649
H      -0.423687    1.741410    0.703533
H       0.610187   -0.374418   -0.815738
H       1.146107   -1.505810    1.261775
H       1.323830    0.169244    1.801873
H      -2.063582    0.240832   -0.553802
H      -1.551449   -1.446369   -0.595454
H      -3.922730   -0.998126    2.154534
H      -2.642486   -1.249709    4.557744
