17

N       0.064109    1.359768    0.274061
C      -0.039206   -0.073611    0.110633
C      -0.617373   -0.855870    1.248722
N      -1.632782    0.052999    1.903417
H      -2.081163   -0.305479    2.742666
H      -1.228522    0.988405    2.042584
C      -2.478973   -0.001228    0.614790
C      -1.364085   -0.754093   -0.088117
C      -1.619264   -1.900311   -1.107334
O      -2.830817   -2.064572   -1.328988
O      -0.582136   -2.462460   -1.486900
H       1.017670    1.623722    0.503750
H      -0.168770    1.830778   -0.595103
H       0.730544   -0.630129   -0.422822
H      -0.192650   -1.674028    1.814206
H      -3.342042   -0.648370    0.760626
H      -2.769655    0.997816    0.284989
