19

C       0.042774    1.575916    0.137450
C      -0.055839    0.057341   -0.029678
C       0.783352   -0.470901   -1.196889
C       0.681968   -1.998284   -1.363702
C       1.465851   -2.515234   -2.524478
C       2.585410   -3.281718   -2.600020
O       2.915718   -3.463339   -3.877269
N       1.932683   -2.760449   -4.641324
N       1.125716   -2.233903   -3.836020
H       1.076341    1.887832    0.324015
H      -0.301122    2.095948   -0.763267
H      -0.566701    1.924650    0.976752
H       0.261571   -0.435894    0.899000
H      -1.105218   -0.228415   -0.180905
H       0.465399    0.008304   -2.130737
H       1.835844   -0.194135   -1.052608
H       1.028406   -2.496877   -0.451370
H      -0.370741   -2.277906   -1.492971
H       3.214960   -3.745623   -1.858429
