16

O      -0.808251    1.070410    0.276981
C       0.319630    0.813709   -0.058015
C       1.439656    1.816879   -0.028904
C       1.458507    2.930184    1.050407
N       1.815265    3.977397    0.033315
C       2.873999    3.386904   -0.845454
C       3.664153    2.179657   -0.360549
O       2.686533    1.155211   -0.127119
C       1.473572    2.993607   -1.052263
H       0.619848   -0.189924   -0.428210
H       0.458450    3.140984    1.432410
H       2.166101    2.799536    1.875041
H       3.352777    4.119951   -1.484153
H       4.368480    1.829425   -1.122529
H       4.226421    2.387360    0.559108
H       0.820242    3.206030   -1.888825
