18

C      -0.020064    1.425127   -0.121094
N      -0.016822   -0.031405   -0.134982
C       1.255536   -0.636423    0.227526
C      -1.231221   -0.658851    0.008222
N      -2.309329    0.023861    0.127607
C      -1.184939   -2.200350    0.005483
O      -0.739367   -2.722862    1.247741
C      -2.501712   -2.760626   -0.357308
N      -3.532479   -3.214657   -0.614426
H       0.911438    1.780603   -0.570239
H      -0.873405    1.792598   -0.689675
H      -0.096840    1.827770    0.898793
H       1.552526   -0.371059    1.253181
H       1.222480   -1.721834    0.172151
H       2.033904   -0.276424   -0.453281
H      -3.133724   -0.572923    0.105030
H      -0.466833   -2.557393   -0.739174
H      -1.311262   -2.365616    1.938444
