16

C      -0.012291    1.563654   -0.062817
C      -0.003198    0.037568    0.043964
C      -1.405030   -0.564073    0.044900
O      -2.083958   -0.314379   -1.203050
C      -2.455221   -1.470693   -1.781640
O      -3.025725   -1.588382   -2.812879
O      -2.070199   -2.537143   -0.988183
C      -1.426253   -2.072890    0.138060
N      -0.941372   -2.771384    1.058644
H       1.008572    1.954786   -0.063238
H      -0.501642    1.890288   -0.984445
H      -0.544210    2.016170    0.781097
H       0.564278   -0.403942   -0.783542
H       0.479455   -0.291183    0.970336
H      -2.010680   -0.123640    0.844750
H      -1.075765   -3.769124    0.892510
