19

C      -0.103727    1.200557    0.111126
O      -0.017774   -0.221807   -0.070464
C       0.699370   -0.627909   -1.121304
O       1.244861    0.114583   -1.905569
C       0.774894   -2.149583   -1.237842
O       1.315269   -2.480838   -2.493651
C       1.595094   -2.738737   -0.102726
C       0.948333   -3.060079    1.219449
C       1.370994   -4.173888    0.296077
H       0.890465    1.628142    0.261341
H      -0.563194    1.670074   -0.761840
H      -0.721714    1.347954    0.996249
H      -0.251306   -2.540164   -1.164221
H       1.643192   -1.648816   -2.866426
H       2.620793   -2.380448   -0.081811
H       1.522660   -2.887638    2.122626
H      -0.111651   -2.856947    1.325398
H       0.596931   -4.725147   -0.227315
H       2.236762   -4.769017    0.562977
