25

C      -0.005244    1.496398   -0.025577
O       0.128599    0.098910   -0.092478
C       0.691303   -0.456313    1.078615
C       0.810444   -1.963966    0.881707
C       1.246833   -2.742716    2.125800
C       2.643666   -2.337125    2.607831
C       0.216203   -2.802023    3.304094
C       0.440115   -4.334347    3.402374
C       1.116202   -4.296984    2.005974
H       0.967829    1.996712    0.107825
H      -0.445923    1.830592   -0.968347
H      -0.662695    1.807384    0.802752
H       1.675723   -0.000443    1.275322
H       0.053334   -0.230756    1.951753
H      -0.169256   -2.330425    0.552231
H       1.508964   -2.157859    0.057204
H       2.674245   -1.292998    2.936886
H       2.963734   -2.954184    3.454135
H       3.384481   -2.460366    1.809102
H       0.442652   -2.203031    4.190894
H      -0.796632   -2.554995    2.971284
H       1.137685   -4.605173    4.199288
H      -0.449589   -4.959507    3.505392
H       0.427546   -4.585565    1.206284
H       2.045694   -4.859763    1.879751
