22

C      -0.361986    1.437242    0.176869
C       0.250237    0.050631    0.215524
C       0.680034   -0.579888   -1.126529
C       2.122090   -0.423526   -0.585651
O       1.629861    0.073588    0.681083
C       2.965404   -1.673831   -0.442981
C       3.414089   -2.274709   -1.757420
C       3.812077   -1.798927    0.768125
N       2.602334   -2.637224    0.608784
H       0.216260    2.103896   -0.470860
H      -1.389053    1.389783   -0.201796
H      -0.387120    1.871803    1.180954
H      -0.351592   -0.609165    0.853665
H       0.363997   -1.614948   -1.267238
H       0.436483   -0.000092   -2.018508
H       2.706120    0.348757   -1.106359
H       4.046400   -1.574671   -2.315520
H       3.984151   -3.188975   -1.577841
H       2.557204   -2.533791   -2.389723
H       4.755601   -2.335329    0.712876
H       3.774407   -0.996631    1.498759
H       1.873507   -2.218220    1.185352
