17

N       0.110389   -1.168022    0.558360
C       0.008151   -0.083429    0.171513
C      -0.098888    1.293849   -0.315409
C       1.270617    1.998203   -0.291167
C       1.881772    2.923252   -1.312207
C       0.941284    4.042508   -1.838303
N      -0.411425    3.865793   -1.247838
C       0.677621    4.508005   -0.466040
C       1.606676    3.408935    0.119543
H      -0.514379    1.278750   -1.324691
H      -0.825830    1.828486    0.298803
H       2.046062    1.333099    0.083483
H       2.837319    2.710966   -1.775019
H       1.086964    4.599237   -2.754106
H      -0.997101    4.615704   -1.614766
H       0.571488    5.509340   -0.071162
H       2.322575    3.619712    0.904011
