21

C       0.010524    1.357821   -0.226133
O      -0.008798   -0.048316   -0.250391
C      -1.275991   -0.586150    0.052168
C      -1.184031   -2.104888   -0.006624
C      -2.530689   -2.777655    0.321687
C      -2.474258   -4.233405    0.265838
C      -2.407985   -5.433744    0.205888
C      -2.325309   -6.887439    0.158670
O      -2.912108   -7.364018   -1.047841
H       1.026722    1.676330   -0.471114
H      -0.684662    1.790312   -0.963703
H      -0.256326    1.754612    0.766745
H      -1.603709   -0.258309    1.055367
H      -2.031851   -0.218152   -0.664933
H      -0.853992   -2.407138   -1.005426
H      -0.418548   -2.445189    0.698049
H      -2.865761   -2.463234    1.319620
H      -3.299557   -2.422120   -0.377750
H      -1.267842   -7.190677    0.231907
H      -2.836591   -7.307178    1.040780
H      -2.832973   -8.323437   -1.043866
