19

C      -0.003869    1.482088    0.048277
C      -0.003705   -0.031667    0.003649
C       0.604276   -0.697719   -1.241080
O       0.155282   -2.072212   -1.146334
C      -0.680694   -2.123185   -0.015749
O       0.080226   -2.077792    1.189324
C       0.639761   -0.740908    1.218981
C      -1.381655   -0.760061    0.001705
O      -2.205027   -0.521161    1.113858
H       1.009213    1.885418    0.155431
H      -0.435038    1.903761   -0.865697
H      -0.601902    1.831849    0.895367
H       0.233981   -0.253121   -2.174413
H       1.700040   -0.676013   -1.252993
H      -1.264208   -3.042165   -0.027881
H       1.731606   -0.795149    1.143398
H       0.376760   -0.261113    2.168411
H      -1.963046   -0.559725   -0.901835
H      -1.855937   -1.055386    1.838510
