21

C      -0.401015    1.554994   -0.016984
C      -0.026520    0.069498   -0.040241
C       0.752883   -0.409291   -1.316170
C       2.133416   -0.823338   -0.777911
C       2.827427    0.430357   -0.167346
C       2.322865    0.215111    1.272676
O       2.832562   -1.132527    1.525879
C       1.803480   -1.527206    0.586760
C       0.888660   -0.395682    1.097505
H       0.479861    2.201961   -0.075432
H      -1.052209    1.807061   -0.860572
H      -0.937670    1.809878    0.903552
H      -0.959588   -0.501750    0.035719
H       0.240378   -1.259564   -1.780201
H       0.828643    0.372480   -2.078951
H       2.745503   -1.394398   -1.476177
H       3.917712    0.369963   -0.184299
H       2.516988    1.367394   -0.635459
H       2.579976    0.937908    2.047250
H       1.557728   -2.589211    0.597066
H       0.412509   -0.590117    2.058729
