20

C      -0.075532    1.598746    0.020421
C      -0.012671    0.067307   -0.046225
C      -1.438336   -0.544263    0.046050
C      -1.434843   -1.999492    0.068542
C      -1.396934   -3.200522    0.087083
N       0.722060   -0.409047   -1.210276
C       0.270006   -0.080562   -2.552841
C       1.794082   -1.245926   -1.062402
O       2.449893   -1.721591   -1.964493
H       0.928188    2.026417   -0.048433
H      -0.682339    2.016064   -0.789069
H      -0.521808    1.918306    0.966834
H       0.546704   -0.291569    0.824445
H      -1.915350   -0.157442    0.954904
H      -2.048537   -0.182074   -0.790833
H      -1.373018   -4.262121    0.099460
H       0.268559    1.001112   -2.721770
H       0.965317   -0.550526   -3.248321
H      -0.737026   -0.468345   -2.743474
H       2.014894   -1.440875    0.004531
