21

C       0.046575    1.410417   -0.069399
C       0.035105   -0.056100    0.356391
O       0.662211   -0.257241    1.621316
C      -1.370683   -0.622829    0.376700
O      -1.961403   -0.913436   -0.901282
C      -1.680476   -1.995620   -0.023845
C      -0.727922   -3.159229   -0.315190
C      -1.620879   -4.033376    0.618023
C      -2.733624   -2.943369    0.553278
H       1.069567    1.795743   -0.086399
H      -0.393205    1.522310   -1.064737
H      -0.541082    2.022050    0.627459
H       0.628122   -0.642364   -0.353118
H       0.249114    0.341167    2.253707
H      -2.050238   -0.129410    1.079525
H      -0.787591   -3.469831   -1.362442
H       0.321501   -3.036299   -0.038845
H      -1.887308   -5.025566    0.250902
H      -1.195355   -4.130619    1.618996
H      -3.220934   -2.652182    1.487039
H      -3.502662   -3.177524   -0.188993
