17

O      -0.315473    1.718498    1.165658
N      -0.046615    0.347712    1.136787
C      -0.884767   -0.306344    0.420511
C      -0.613129   -1.802120    0.421485
C      -0.308976   -2.363260   -0.896804
N      -0.071622   -2.810060   -1.935856
C      -2.046611    0.288168   -0.275921
C      -2.275155    0.129494   -1.775877
C      -3.201077   -0.538239   -0.808032
H       0.371200    2.047263    1.755522
H       0.237981   -1.982559    1.083503
H      -1.473886   -2.343019    0.832543
H      -2.301849    1.263061    0.118433
H      -2.615951    1.012745   -2.303625
H      -1.589732   -0.495358   -2.334341
H      -3.147790   -1.618448   -0.729412
H      -4.197518   -0.135241   -0.666705
