18

N      -0.221551    1.382699    0.609802
C       0.106803    0.196016    0.046927
O       1.234869   -0.107846   -0.299579
C      -1.060191   -0.782625   -0.138420
O      -2.250016   -0.162172    0.352600
C      -1.236117   -1.195179   -1.627164
C      -1.685664   -2.634215   -1.529773
C      -1.451367   -3.142644   -0.319718
C      -0.805783   -2.129270    0.596076
H       0.502269    2.065515    0.756603
H      -1.173320    1.570596    0.873179
H      -2.973348   -0.786301    0.230447
H      -1.950509   -0.529266   -2.123062
H      -0.281075   -1.116172   -2.159586
H      -2.101203   -3.176728   -2.371444
H      -1.645502   -4.165664   -0.017806
H       0.270672   -2.313805    0.690971
H      -1.228773   -2.095938    1.605868
