21

C      -0.046818    1.530593    0.084242
C      -0.030354    0.024577    0.033805
C       0.015835   -0.692995   -1.310699
C      -0.379378   -2.129222   -0.908825
C       0.816361   -2.868763   -0.299616
C       1.427872   -2.019694    0.850086
C       0.562264   -0.807915    1.170423
C      -0.918393   -0.857844    0.875382
O      -1.368258   -1.958400    0.120544
H       0.899597    1.957242   -0.269547
H      -0.849009    1.938972   -0.542368
H      -0.206178    1.891952    1.105606
H      -0.718522   -0.252091   -1.994383
H       0.996146   -0.663836   -1.798490
H      -0.842666   -2.703718   -1.714071
H       0.461929   -3.832275    0.077674
H       1.561034   -3.078662   -1.075118
H       1.543666   -2.632749    1.750063
H       2.435639   -1.680007    0.584107
H       0.852544   -0.244904    2.053703
H      -1.666597   -0.494195    1.570043
