16

N       0.723749    0.777215   -1.024533
C       0.241128   -0.333530   -0.329699
C      -1.067086   -0.764439   -0.186448
N      -1.047240   -1.815655    0.678500
N       0.186313   -2.124414    1.099165
C       0.973318   -1.233602    0.494389
N       2.341054   -1.275337    0.811554
C       3.409850   -0.984383    0.018344
N       3.328153   -0.495998   -1.162345
H       1.664731    0.586837   -1.376567
H       0.108293    1.053928   -1.778613
H      -1.984016   -0.391666   -0.614087
H      -1.825150   -2.358279    1.007862
H       2.535259   -1.802653    1.648404
H       4.353070   -1.209625    0.528729
H       4.255908   -0.334450   -1.542784
