21

C      -0.126268    1.630361   -0.008630
C      -0.052454    0.109477   -0.001543
C       1.143081   -0.585473   -0.694055
C       2.077834   -0.372525    0.531883
O       2.482499   -1.768229    0.631628
C       1.064091   -1.820857    0.261810
C       0.412728   -3.154341    0.082373
C       0.667067   -0.600965    1.175384
C       0.335727   -0.643814    2.639416
H       0.839616    2.083212    0.240347
H      -0.424504    2.006762   -0.993285
H      -0.861316    1.994691    0.717706
H      -1.028225   -0.325423   -0.252763
H       1.437618   -0.594174   -1.744347
H       2.826812    0.394695    0.725011
H       0.452820   -3.731255    1.011782
H      -0.636585   -3.031905   -0.204330
H       0.920368   -3.727071   -0.699953
H       1.081288   -1.241882    3.174250
H       0.327439    0.360159    3.077918
H      -0.649763   -1.090420    2.813500
