20

C      -0.132295    1.380309    0.002649
O       0.107092   -0.009277    0.059762
C       0.731461   -0.550789   -1.087014
C       1.234804   -1.944058   -0.731411
C       1.890738   -2.579033   -1.950374
O       1.041598   -2.604213   -3.107676
C       0.335811   -1.476432   -3.427505
N       0.078280   -1.173841   -4.629355
C      -0.229712   -0.670409   -2.279381
H       0.792890    1.941996   -0.199817
H      -0.874879    1.651671   -0.760847
H      -0.517335    1.677692    0.980921
H       1.589489    0.083999   -1.371918
H       1.957917   -1.892298    0.088453
H       0.388857   -2.552264   -0.391635
H       2.813972   -2.040557   -2.208541
H       2.153075   -3.622676   -1.763793
H       0.513982   -1.854548   -5.256274
H      -1.130991   -1.183543   -1.918047
H      -0.536163    0.297552   -2.676686
