15

C      -0.008412    1.438118   -0.076757
N      -0.003097   -0.012346   -0.044639
C      -1.089960   -0.641032    0.042597
O      -2.384929   -0.115886    0.133253
C      -3.206871   -1.194902    0.240391
N      -2.613558   -2.328224    0.215844
N      -1.281783   -2.005376    0.072942
C      -0.249001   -3.010166    0.074268
H       0.867875    1.812183    0.462233
H       0.070717    1.803137   -1.109756
H      -0.904973    1.888015    0.369131
H      -4.266118   -1.021213    0.331524
H      -0.449799   -3.762075   -0.693804
H       0.690028   -2.499968   -0.143995
H      -0.175879   -3.504774    1.048973
