16

O       0.196703    0.336438   -0.915871
C       0.082159    1.316435   -0.197572
N       1.104146    1.784150    0.584083
C       2.421943    1.185324    0.529883
C       3.443119    2.115262    0.029797
N       4.242953    2.862344   -0.339362
C      -1.200910    2.081434   -0.095134
C      -1.912408    2.348869   -1.382757
N      -2.427138    1.354646   -0.448278
H       0.975521    2.627340    1.119906
H       2.734354    0.818790    1.514735
H       2.342485    0.325036   -0.141696
H      -1.298030    2.785941    0.726915
H      -2.503172    3.255409   -1.474224
H      -1.424114    2.005240   -2.289668
H      -2.137404    0.430281   -0.769824
