21

C      -0.198396    1.632572   -0.107763
C       0.000897    0.123146   -0.009661
C       1.010716   -0.582328   -1.021378
C       1.928113   -0.848280    0.189881
C       2.606870   -1.759632    1.240734
C       2.066302   -0.426933    1.996001
O       2.121004   -0.150950    3.351380
C       2.678395    0.370004    0.834913
C       0.765899   -0.620444    1.175904
H       0.733030    2.192460   -0.214553
H      -0.816657    1.870571   -0.981253
H      -0.717690    2.011732    0.778564
H      -0.989543   -0.336013   -0.077138
H       0.575841   -1.486066   -1.456485
H       1.431107    0.031284   -1.823740
H       2.092860   -2.691918    1.485299
H       3.694666   -1.887484    1.210725
H       3.038131    0.024507    3.590510
H       3.768713    0.351874    0.737429
H       2.285954    1.369420    0.662705
H       0.208665   -1.518996    1.456079
