16

C      -0.118891   -1.220926   -0.268643
C      -0.001210   -0.034614   -0.118991
C       0.092388    1.402226    0.089563
C      -0.672641    1.878211    1.400376
C       0.092086    3.175899    1.689808
C       1.022460    3.573937    2.875260
O       2.213820    3.416844    1.997140
C       1.401511    2.794348    1.093524
N       1.524287    1.842773    0.275334
H      -0.206733   -2.269336   -0.412690
H      -0.332278    1.911756   -0.787239
H      -1.745748    1.997095    1.239634
H      -0.514240    1.129119    2.181205
H      -0.371818    4.057640    1.240703
H       0.945867    4.598146    3.241805
H       1.079682    2.856498    3.697377
