17

C       0.024108    1.536425    0.099275
C       1.562061    1.417627   -0.119085
O       1.755201    0.882798   -1.434417
C       1.451950   -0.035850   -0.365290
C       2.133933   -1.348112   -0.141082
O       1.242563   -2.366667   -0.593846
C      -0.016924   -2.410409    0.063635
C      -0.713474   -1.069515    0.190827
C      -0.009641    0.015918   -0.089806
H      -0.270623    1.856476    1.102766
H      -0.485566    2.150263   -0.647515
H       2.359816    2.014831    0.306728
H       3.050392   -1.455261   -0.725023
H       2.373065   -1.481848    0.926139
H      -0.621170   -3.106877   -0.528513
H       0.091222   -2.858123    1.069354
H      -1.735519   -1.063921    0.559546
