15

C       0.044139   -1.302138    0.103333
C       0.040650   -0.102349    0.045167
C       0.037629    1.358257   -0.066652
N      -0.642236    2.001475    1.077337
C       0.080212    3.223870    1.449201
C       1.446936    3.007735    0.827909
C       1.419675    1.979501   -0.007795
C      -0.548003    4.462935    0.935277
N      -1.069931    5.412992    0.532707
H       0.045648   -2.362315    0.167788
H      -0.427663    1.618579   -1.034234
H      -1.629021    2.152768    0.915970
H       0.135732    3.323035    2.542260
H       2.285954    3.653498    1.048050
H       2.241286    1.599402   -0.599522
