20

C      -0.140271    1.613911   -0.034306
C       0.078793    0.107476    0.026455
C      -1.084720   -0.629306   -0.642026
C       1.381847   -0.668683   -0.194751
C       2.662066   -0.163437    0.526979
N       2.404974    1.105440    1.259367
C       1.979710   -0.195106    1.833669
C       0.669909   -0.718625    1.151633
O       0.037594   -1.817007    1.717814
H      -0.194452    1.932399   -1.082731
H      -1.105474    1.861901    0.425600
H       0.645091    2.173100    0.461217
H      -1.185266   -0.299269   -1.681561
H      -0.956002   -1.712981   -0.629639
H      -2.027606   -0.399328   -0.131938
H       1.434077   -1.442550   -0.950965
H       3.669628   -0.456469    0.261342
H       3.279116    1.354925    1.724125
H       2.325657   -0.542607    2.799057
H      -0.685020   -1.495759    2.269439
