14

O       0.067935    1.408454    0.077911
C       0.027322   -0.000655   -0.009345
C      -1.427369   -0.480622   -0.086085
C      -1.502904   -1.412714   -1.301018
O      -2.437795   -2.101159   -1.625027
C      -0.199297   -1.308299   -2.012952
C       0.639464   -0.527779   -1.315855
C       1.966775   -0.166334   -1.667522
N       3.052259    0.169721   -1.893827
H       0.982753    1.687308    0.199359
H       0.555766   -0.459480    0.839077
H      -1.777774   -0.988676    0.814156
H      -2.076160    0.383874   -0.258192
H       0.001247   -1.804954   -2.953275
