15

C       0.026760    1.505696   -0.034900
C       0.027644    0.016795    0.047126
C      -0.869752   -0.845628    0.866408
C       0.641369   -0.986837    1.045462
C       1.214598   -1.654047   -0.204450
O       0.527905   -0.716894   -1.071313
C       1.312910   -0.789247    2.280799
N       1.866933   -0.622306    3.284293
H       1.015239    1.880917   -0.313047
H      -0.692677    1.836925   -0.791959
H      -0.261829    1.942693    0.924530
H      -1.367220   -0.356674    1.697231
H      -1.421126   -1.657218    0.399856
H       2.299077   -1.540739   -0.293122
H       0.923282   -2.692902   -0.392649
