16

C       0.502016    1.133051   -0.623191
C       0.067140   -0.020059    0.243294
O       0.748984   -0.466420    1.134657
C      -1.318572   -0.640762    0.009314
C      -1.541196   -1.987599    0.582874
O      -2.060408   -0.833801    1.228732
C      -2.143206   -0.249277   -1.202549
N      -3.468872   -0.133422   -0.946654
O      -1.633252   -0.091220   -2.297091
H       1.490714    1.465027   -0.305964
H       0.498844    0.831687   -1.673301
H      -0.214828    1.958598   -0.540060
H      -2.277633   -2.638191    0.115121
H      -0.704742   -2.458128    1.092306
H      -3.807885   -0.223316   -0.003294
H      -4.090930    0.112237   -1.698314
