19

C      -0.006391    1.508595   -0.029971
C      -0.018887   -0.005520    0.051426
O       0.952620   -0.599692   -0.866293
C       1.729152   -1.130576    0.232591
C       0.707924   -0.630761    1.268147
C       0.416373   -2.095379    1.664421
C       0.013187   -2.946155    0.473686
C       1.455381   -2.597162    0.657356
O       2.452741   -3.534636    0.851569
H       0.985453    1.906071    0.207866
H      -0.273094    1.838270   -1.038785
H      -0.730383    1.934124    0.674159
H      -1.027057   -0.390940   -0.146101
H       2.783541   -0.844131    0.209415
H       0.984810    0.033608    2.085808
H       0.219087   -2.432143    2.674481
H      -0.221838   -3.970985    0.744380
H      -0.559865   -2.549924   -0.357366
H       2.506042   -4.088552    0.064585
