19

O      -0.064008    1.393726   -0.005035
C       0.033700   -0.005469   -0.020711
C      -0.486444   -0.712238   -1.232271
C      -1.313830   -0.697196    0.060853
C      -1.473625   -1.947597    0.857309
O      -2.564035   -2.340711    1.211371
C      -0.183374   -2.657133    1.247496
C       0.824439   -1.636206    1.803542
C       1.224847   -0.595048    0.746118
H       0.615448    1.744948   -0.591556
H      -0.880941   -0.105813   -2.039460
H      -0.023830   -1.644716   -1.538491
H      -2.190489   -0.060641    0.044462
H      -0.436201   -3.428819    1.977783
H       0.243470   -3.160223    0.368778
H       0.372164   -1.127221    2.663262
H       1.716192   -2.150521    2.175894
H       1.934084   -1.044191    0.039492
H       1.740935    0.238462    1.231199
