21

C      -0.013527    1.353939   -0.335923
O      -0.050540    0.095059    0.298478
C      -1.275962   -0.561147    0.165537
C      -1.675321   -1.127185   -1.212109
O      -0.702670   -2.112092   -1.580635
C      -1.728031   -2.493381   -0.664329
C      -1.304361   -2.031422    0.749090
C       0.035480   -2.571751    1.235282
C      -2.417837   -2.218277    1.778497
H       0.970248    1.786636   -0.140606
H      -0.152829    1.269575   -1.423669
H      -0.786228    2.031679    0.061053
H      -2.095400    0.047389    0.583016
H      -2.245324   -0.670133   -2.013283
H      -2.363175   -3.328424   -0.940791
H       0.793628   -2.473728    0.457267
H       0.378522   -2.020452    2.116205
H      -0.055348   -3.629002    1.509577
H      -2.536146   -3.276545    2.036950
H      -2.189089   -1.672477    2.699986
H      -3.381978   -1.856696    1.403510
