19

C      -0.277082    1.491928   -0.179487
C       0.143928    0.024104    0.009759
C       0.912538   -0.525082   -1.142470
C       2.182566   -0.997926   -1.277331
C       2.321798   -1.374238   -2.654559
O       3.414403   -1.901928   -3.280144
C       1.136855   -1.108014   -3.270229
C       0.658998   -1.272891   -4.664464
O       0.269138   -0.585135   -2.339356
H       0.598925    2.138565   -0.288640
H      -0.891419    1.603813   -1.076903
H      -0.858012    1.842547    0.678987
H       0.763079   -0.078085    0.906892
H      -0.752391   -0.587983    0.176961
H       2.926089   -1.072051   -0.497473
H       4.115755   -2.011912   -2.632721
H      -0.206192   -1.944235   -4.726317
H       0.364760   -0.316884   -5.114594
H       1.463842   -1.699148   -5.268041
