12

O       0.038561    1.385876   -0.303321
C       0.055145    0.098773    0.283043
C      -1.324214   -0.513789    0.266904
O      -1.762169   -1.032224   -0.995090
C      -1.568393   -1.959291    0.072933
C      -0.477709   -2.901824   -0.068602
N       0.376138   -3.675042   -0.162604
H      -0.186314    1.276251   -1.233998
H       0.765698   -0.575633   -0.213898
H       0.383714    0.233395    1.318949
H      -2.091933    0.045033    0.802702
H      -2.479455   -2.395778    0.478012
