18

C      -0.040518    1.530741    0.080297
C       0.055091    0.032820   -0.000868
N      -0.603984   -0.840037    1.010175
C       0.881824   -0.830252    0.879645
C       1.390849   -1.889169   -0.076422
C       0.251945   -2.215188   -1.086432
O       1.222853   -2.403574   -2.179946
C       1.676227   -1.212629   -1.466417
C       0.201503   -0.682115   -1.337329
H       0.736029    2.008245   -0.527719
H      -1.010593    1.888192   -0.284300
H       0.080154    1.880021    1.111435
H      -0.857663   -0.264392    1.812873
H       1.489643   -0.436862    1.687069
H       2.039558   -2.697516    0.256254
H      -0.565285   -2.927070   -0.997765
H       2.574336   -0.711977   -1.832306
H      -0.302139   -0.314740   -2.230546
