14

O       0.003527    0.025014   -0.177886
C      -0.039546    1.196578   -0.008746
C      -1.110990    2.242933    0.295073
N      -0.034824    3.222076    0.588043
C       1.057580    2.354753    0.028283
C       2.183304    2.134216    0.920896
C       3.094778    1.907332    1.669387
C       1.467408    2.705478   -1.326581
C       1.745511    3.006560   -2.456969
H      -1.729339    2.452804   -0.588500
H      -1.767288    2.022027    1.142890
H      -0.119283    4.102781    0.093535
H       3.905465    1.719500    2.329503
H       2.014115    3.267890   -3.451061
