20

C      -0.118345    1.468664    0.076435
C      -0.011549   -0.042470    0.007879
O      -1.348284   -0.574676    0.001654
C      -1.451029   -1.904539   -0.042984
N      -0.468168   -2.718823   -0.077934
C      -1.012309   -4.059155   -0.054271
C      -1.716193   -4.469178    1.213362
C      -2.530775   -3.982879    0.034108
C      -2.850369   -2.497823   -0.025776
H       0.881908    1.911823    0.083344
H      -0.663370    1.861260   -0.786764
H      -0.640948    1.782691    0.984518
H       0.507388   -0.378134   -0.896304
H       0.529626   -0.459161    0.864073
H      -0.482544   -4.797613   -0.644447
H      -1.774173   -5.528253    1.442787
H      -1.602145   -3.822835    2.078983
H      -3.173923   -4.686371   -0.479547
H      -3.427317   -2.122288    0.826141
H      -3.398856   -2.218300   -0.932996
