21

C      -0.185882    1.613047    0.275121
C      -0.075540    0.099988    0.059659
C       0.905203   -0.547790    1.017210
O       0.438838   -0.457701    2.416033
C       0.434733   -1.820649    2.556843
O       0.092096   -2.451028    3.507099
C       0.967243   -2.092778    1.147614
C       0.133594   -3.009356    0.251230
C       0.222807   -4.473627    0.697180
H       0.777890    2.107986    0.113153
H      -0.909690    2.054996   -0.415291
H      -0.509100    1.833265    1.296281
H      -1.059971   -0.365469    0.178733
H       0.255739   -0.115022   -0.964368
H       1.888801   -0.071913    0.947352
H       1.998970   -2.457886    1.191992
H      -0.913664   -2.688360    0.258751
H       0.483050   -2.908722   -0.783622
H      -0.402718   -5.111927    0.066617
H       1.251985   -4.843498    0.632637
H      -0.107015   -4.582870    1.733945
