16

C      -0.226558    1.453130    0.038663
C       0.000923   -0.043445   -0.085230
C       1.009615   -0.409450   -1.153621
O       1.186347   -1.833521   -1.220125
C       1.212568   -2.527502   -0.066955
O       1.442210   -3.705068   -0.066538
C       0.954543   -1.773093    1.240775
N       1.195370   -2.294364    2.364566
O       0.487651   -0.504444    1.184293
H       0.715367    1.973119    0.235606
H      -0.665874    1.850437   -0.880591
H      -0.909103    1.655947    0.866812
H      -0.947897   -0.554607   -0.303437
H       0.669469   -0.106634   -2.146057
H       1.975495    0.067570   -0.947451
H       1.545480   -3.241236    2.209312
