18

N       0.101633    1.221068    0.360563
C       0.030150    0.014576    0.035433
O       1.040214   -0.877809   -0.378621
C      -0.002613   -1.780725   -0.918454
C      -0.331275   -3.263639   -0.638371
C      -1.658774   -2.994570    0.149784
C      -1.104620   -2.009521    1.204069
C      -1.016378   -1.073347   -0.037753
C      -2.347872   -1.714030   -0.502347
H       1.062487    1.563693    0.303823
H      -0.091481   -1.545982   -1.982860
H      -0.455367   -3.823812   -1.568530
H       0.391604   -3.792220   -0.012246
H      -2.261941   -3.859397    0.427006
H      -1.853749   -1.649493    1.911902
H      -0.177102   -2.268310    1.719658
H      -2.557318   -1.708291   -1.574705
H      -3.233552   -1.422237    0.064159
