20

O       0.277103    1.156474   -0.058763
C      -0.202754   -0.122914    0.291480
C      -1.673773   -0.289893   -0.103537
N      -1.800169   -0.019973   -1.525150
C      -2.408968   -0.855420   -2.241542
O      -2.539020   -0.652229   -3.569592
C      -3.183579   -1.681875   -4.284254
C      -4.686964   -1.745772   -4.272623
C      -3.941250   -1.249342   -5.494311
H      -0.044109    1.311966   -0.957026
H       0.388824   -0.922447   -0.186261
H      -0.091400   -0.229568    1.376187
H      -2.036849   -1.290921    0.184491
H      -2.263042    0.457246    0.443228
H      -2.876987   -1.779967   -1.873946
H      -2.614967   -2.607783   -4.321525
H      -5.161143   -2.720266   -4.304366
H      -5.205539   -1.003879   -3.676165
H      -3.965238   -0.183648   -5.688981
H      -3.899127   -1.876139   -6.377209
