16

C      -0.011775   -1.194503    0.073915
C      -0.009471    0.007213    0.042768
C       0.000702    1.441557   -0.020667
C      -0.343236    2.134686   -1.359677
O       0.817522    2.997594   -1.254019
C       1.261528    2.333798   -0.052799
C       0.796034    2.959156    1.268192
C      -0.542316    3.552440    1.133795
N      -0.460032    2.085744    1.296243
H      -0.016431   -2.255949    0.108221
H      -0.264751    1.460725   -2.219454
H      -1.286970    2.688506   -1.409727
H       2.284538    1.960083   -0.110558
H       1.419083    3.073383    2.149157
H      -0.968237    4.022409    2.014738
H      -0.837828    4.002208    0.192876
