21

C      -0.121194    1.410336   -0.178325
C       0.159152   -0.074197   -0.088414
C       1.589589   -0.578177    0.080554
C       0.611759   -0.668298    1.204968
O       0.748809    0.105799    2.399115
C       0.557818   -1.072402    3.215428
C       0.167459   -1.916398    1.969248
C      -1.312549   -2.257449    1.862734
O       0.985761   -3.030861    1.685649
H       0.509639    1.967201    0.519694
H       0.068609    1.787743   -1.188832
H      -1.163965    1.632041    0.073588
H      -0.490040   -0.702920   -0.694879
H       1.886398   -1.499430   -0.408668
H       2.370970    0.169522    0.176113
H       1.493435   -1.409428    3.676829
H      -0.210098   -0.917345    3.981583
H      -1.931226   -1.373524    2.040049
H      -1.545524   -2.650449    0.868150
H      -1.590280   -3.015546    2.606425
H       0.577789   -3.812841    2.071827
