23

C      -0.141536    1.699853    0.082724
C      -0.083718    0.190409    0.342228
C      -1.366421   -0.540254   -0.057857
C      -1.710583   -0.532728   -1.553673
O      -2.646718   -1.590051   -1.743164
C      -2.526880   -2.533874   -0.681192
C      -1.383804   -2.052517    0.229733
O      -0.127794   -2.593004   -0.149251
C       0.101334   -3.902951    0.312485
H       0.776288    2.191101    0.420232
H      -0.260538    1.922595   -0.982884
H      -0.981094    2.164162    0.612750
H       0.760084   -0.253615   -0.194006
H       0.106351    0.012788    1.408300
H      -2.216238   -0.105307    0.485690
H      -2.178816    0.396729   -1.891353
H      -0.804666   -0.704445   -2.155835
H      -3.477712   -2.583819   -0.131804
H      -2.320344   -3.529763   -1.092344
H      -1.579641   -2.277610    1.288686
H       0.046728   -3.959492    1.411294
H      -0.613895   -4.628614   -0.102802
H       1.107078   -4.187050   -0.006652
