16

N      -0.207812    0.622970   -0.986115
C      -0.228697   -0.307113    0.023557
C       1.133972   -0.913657    0.325079
O       1.922326   -1.113910   -0.842944
N      -1.214536   -0.656036    0.761821
C      -2.495740    0.023035    0.562601
C      -3.108874   -0.176463   -0.756471
C      -3.580962   -0.336270   -1.852079
H       0.608416    0.570295   -1.579127
H      -1.076667    0.815908   -1.462650
H       1.704803   -0.215544    0.947578
H       0.978709   -1.832251    0.899036
H       1.538378   -1.849616   -1.331695
H      -3.190337   -0.344554    1.325972
H      -2.392637    1.107289    0.734655
H      -4.021964   -0.493462   -2.805354
