21

O      -0.137585    1.433808    0.118108
C      -0.015191    0.012768   -0.023633
C       0.824644   -0.592024    1.121095
C       0.388298   -2.026592    1.504467
C      -1.113380   -2.223392    1.239708
C      -1.896234   -0.892202    1.442521
C      -1.450014   -0.544879   -0.014198
O      -2.289188    0.200737   -0.845841
C      -1.390093   -2.062471   -0.280910
H       0.693530    1.841660   -0.140542
H       0.422074   -0.215674   -1.007080
H       1.893046   -0.555020    0.882198
H       0.676481    0.070538    1.979430
H       0.952618   -2.773748    0.933104
H       0.623427   -2.200965    2.560403
H      -1.498157   -3.121372    1.726470
H      -2.975262   -1.061050    1.462115
H      -1.615694   -0.224726    2.261204
H      -1.984238    1.115877   -0.777545
H      -0.643372   -2.436142   -0.989927
H      -2.379373   -2.432242   -0.561528
