18

C      -0.124965    1.497619   -0.023877
N       0.159432    0.076489    0.011861
C       0.791207   -0.537406   -1.165438
C       1.361275   -1.881597   -0.633249
N       1.550788   -1.542157    0.763822
C       2.056001   -2.072252    1.944046
C       1.635308   -1.202115    2.914707
N       0.856633   -0.173171    2.390325
C       0.829462   -0.445648    1.111904
H       0.768272    2.102652   -0.252929
H      -0.888529    1.704451   -0.779554
H      -0.505361    1.799812    0.953586
H       0.070249   -0.680924   -1.974435
H       1.611839    0.095648   -1.542234
H       0.640434   -2.701292   -0.747169
H       2.292641   -2.163188   -1.130457
H       2.669896   -2.956075    1.969904
H       1.853389   -1.244096    3.971217
