18

C      -0.013660    1.413126   -0.098000
O      -0.025530    0.000057    0.021188
C       0.640574   -0.556049    1.143332
C      -0.136060   -0.307871    2.479677
C      -0.912283   -1.584922    2.674091
C      -0.518627   -2.547757    1.845723
C       0.593152   -2.100583    0.934318
C       2.031482   -0.059168    1.217622
N       3.115202    0.339164    1.273522
H       1.008947    1.805242   -0.167381
H      -0.549192    1.641496   -1.021425
H      -0.526251    1.910310    0.736265
H       0.552186   -0.121978    3.313272
H      -0.772581    0.578328    2.396399
H      -1.684181   -1.678415    3.428985
H      -0.914490   -3.556051    1.817125
H       0.409595   -2.300773   -0.125311
H       1.547873   -2.571493    1.196193
