20

O      -0.142985    1.464392   -0.040808
C       0.012377    0.052016   -0.000846
C      -1.398583   -0.543743    0.014085
C      -1.402668   -2.044325   -0.236867
N      -1.302345   -2.484107   -1.645115
C      -0.186002   -2.754127   -0.720143
C       1.083339   -1.991566   -1.049509
O       1.700196   -2.529588   -2.211554
C       0.821274   -0.484227   -1.185986
H       0.734721    1.858446   -0.070583
H       0.525676   -0.242929    0.931831
H      -1.872805   -0.323786    0.975376
H      -1.987812   -0.040308   -0.759889
H      -2.072264   -2.621451    0.396467
H      -1.851625   -3.326643   -1.789042
H      -0.030062   -3.783317   -0.404302
H       1.805338   -2.158572   -0.240398
H       1.026575   -2.503590   -2.902551
H       0.270238   -0.290207   -2.112950
H       1.784918    0.033668   -1.259893
