19

C      -0.021993   -1.138019    0.452923
C       0.006831    0.019701    0.131775
C       0.064236    1.432465   -0.246672
C       1.446512    2.008131   -0.155510
C       2.207618    2.614946   -1.070790
C       3.487962    2.963143   -0.296023
C       3.710432    1.623944    0.489056
C       2.329380    2.034355    1.106248
C       2.869189    3.504987    1.038743
H      -0.053785   -2.162200    0.730730
H      -0.317391    1.557700   -1.267376
H      -0.620070    1.995641    0.405813
H       2.003612    2.823836   -2.111873
H       4.293168    3.476901   -0.820395
H       3.745092    0.698769   -0.090453
H       4.536911    1.670602    1.205563
H       1.938506    1.587943    2.020182
H       3.616020    3.728576    1.807501
H       2.134548    4.310646    0.962949
