19

C      -0.023718    1.446265   -0.039469
C       0.033378   -0.053927    0.065529
O       0.632670   -0.598063   -1.092250
C       0.690880   -2.016449   -0.865900
C       0.429829   -2.153536    0.632636
C      -1.008572   -1.727821    1.082053
C      -0.370470   -1.018028    2.295260
C       0.745655   -0.756265    1.256756
O      -1.290209   -0.626291    0.197517
H       0.975953    1.849933   -0.217663
H      -0.670630    1.731881   -0.872765
H      -0.428297    1.875823    0.879785
H      -0.067147   -2.527731   -1.472251
H       1.680991   -2.380211   -1.161771
H       0.842938   -3.027249    1.134244
H      -1.863734   -2.400515    1.132925
H      -0.917699   -0.168065    2.709625
H      -0.050013   -1.699784    3.086810
H       1.750654   -0.415321    1.499948
