25

C      -0.044521    1.604048   -0.002984
C       0.033855    0.080523    0.113876
O       0.706176   -0.312163    1.313143
C      -1.335924   -0.578516    0.013336
C      -2.116616   -0.522269   -1.327785
C      -2.632206   -1.959175   -1.044569
C      -2.809615   -2.928073   -2.204607
C      -1.461237   -2.138705   -0.016478
C      -0.232564   -2.886944   -0.530189
H       0.951879    2.043907    0.093336
H      -0.468528    1.908091   -0.965549
H      -0.680732    2.021602    0.787833
H       0.677109   -0.300744   -0.687809
H       0.163411   -0.025386    2.056192
H      -1.967555   -0.181094    0.820816
H      -2.855831    0.271881   -1.461068
H      -1.434625   -0.503969   -2.186045
H      -3.574407   -1.893493   -0.487859
H      -1.896172   -3.021549   -2.800733
H      -3.082068   -3.929891   -1.853402
H      -3.606165   -2.586385   -2.875390
H      -1.765130   -2.582659    0.936631
H       0.113240   -2.512199   -1.499649
H       0.594278   -2.786130    0.178467
H      -0.451006   -3.952840   -0.653355
