18

C       0.087395    1.398259    0.086755
C      -0.126932   -0.106138   -0.108088
O       0.171975   -0.827671    1.074812
C      -1.547886   -0.374785   -0.603512
O      -1.791997   -1.776368   -0.830851
C      -2.235885   -2.496722    0.215864
C      -2.479977   -3.929043   -0.183912
O      -2.411089   -2.046099    1.325507
H       1.096252    1.574558    0.467136
H      -0.030263    1.949247   -0.852942
H      -0.624388    1.800775    0.816021
H       0.575612   -0.471543   -0.869698
H      -0.651362   -0.970873    1.560133
H      -2.282293    0.002753    0.114844
H      -1.710042    0.104336   -1.571941
H      -1.524819   -4.402227   -0.431483
H      -2.948379   -4.462529    0.642020
H      -3.108905   -3.975727   -1.076265
