17

N       0.626736    0.176842   -0.791450
C      -0.058662    0.126575    0.378904
O       0.186326    0.843296    1.332024
C      -1.203979   -0.897180    0.436704
C      -0.868761   -2.292679   -0.095406
C      -1.973709   -3.375995   -0.060531
O      -1.884206   -3.519279   -1.517559
C      -0.946474   -2.525650   -1.593968
N      -0.394455   -1.993153   -2.590104
H       1.366456    0.856961   -0.858784
H       0.405028   -0.403801   -1.595000
H      -1.487629   -0.961830    1.489579
H      -2.064200   -0.489969   -0.109513
H       0.077788   -2.646761    0.322475
H      -1.730796   -4.315446    0.439395
H      -2.968660   -3.029835    0.229896
H      -0.713871   -2.386754   -3.475047
