18

N      -0.013747    1.317795   -0.042176
C      -0.014249    0.056898   -0.074067
C      -1.230672   -0.831871   -0.201370
C      -0.660995   -2.207633   -0.554153
O      -0.628243   -2.451838   -1.959185
C       0.713281   -2.377307   -2.442994
C       1.594530   -2.741359   -1.244147
C       0.811550   -2.123738   -0.089928
O       1.111579   -0.720416    0.017477
H       0.937355    1.674076    0.067177
H      -1.756150   -0.859151    0.759349
H      -1.925882   -0.462336   -0.955172
H      -1.214444   -3.025265   -0.082982
H       0.806706   -3.069441   -3.283987
H       0.940636   -1.363425   -2.802596
H       1.640320   -3.827327   -1.113502
H       2.611620   -2.350013   -1.307001
H       1.002510   -2.592844    0.879049
