11

N      -0.060466    1.310474    0.303212
C      -0.008863    0.103264   -0.044830
N      -1.118734   -0.704120   -0.146514
C      -1.140957   -2.047565   -0.524717
O      -2.168771   -2.667024   -0.582620
N       0.121905   -2.604105   -0.827142
C       1.135813   -1.849197   -0.729328
O       1.177441   -0.544753   -0.364384
H       0.863642    1.734255    0.317458
H      -2.005417   -0.273810    0.076995
H       2.138644   -2.207521   -0.945762
