19

C       0.341465    1.640722   -0.332643
C       0.140373    0.174434   -0.037386
N       1.342702   -0.674485    0.061699
C       0.493184   -0.486706    1.248034
C       1.122258    0.226317    2.428536
O       0.145315    0.697267    3.336865
C       2.157023   -0.701078    3.108754
C       2.828006   -0.070223    4.241184
N       3.365072    0.428932    5.133998
H       1.257269    2.019896    0.125132
H       0.422346    1.800958   -1.412739
H      -0.503525    2.230662    0.036668
H      -0.716499   -0.265186   -0.547282
H       1.184502   -1.585942   -0.358124
H      -0.142373   -1.324105    1.546648
H       1.647929    1.118837    2.082159
H      -0.367114   -0.054364    3.655784
H       1.663085   -1.617612    3.457838
H       2.902235   -1.000567    2.364218
