17

O       0.063196   -0.101764   -0.069994
C       0.040106    1.119705    0.006469
C      -1.210123    1.839585    0.211517
C      -1.483243    3.166271    0.154563
N      -0.703196    4.208760   -0.233126
C       0.472210    4.110623   -1.077053
C       1.585337    3.231723   -0.534614
N       1.616746    2.958979    0.892501
C       1.365007    1.839623   -0.051631
H      -2.036740    1.187562    0.470244
H      -2.480743    3.482696    0.452456
H      -1.146225    5.110569   -0.225169
H       0.203688    3.737763   -2.079538
H       0.855200    5.128517   -1.202523
H       2.528292    3.393975   -1.056990
H       2.570387    2.910213    1.239709
H       2.173569    1.132926   -0.220345
