19

C      -0.715982    0.052853    0.553785
C       0.601764   -0.037496   -0.185441
O       1.667557    0.170796    0.347534
C       0.522932   -0.350761   -1.693359
C       1.760800   -1.102627   -2.235808
C       1.262210   -2.528261   -2.411399
C       0.587662   -3.176292   -1.214172
C      -0.227114   -2.455358   -2.258131
O      -0.633134   -1.129779   -2.013519
H      -1.389103    0.753360    0.047622
H      -1.221838   -0.916749    0.537582
H      -0.538916    0.373587    1.580788
H       0.394947    0.625783   -2.181303
H       2.065843   -0.696090   -3.204107
H       2.595780   -0.995252   -1.539775
H       1.732740   -3.155924   -3.158424
H       0.528942   -4.259625   -1.205290
H       0.717484   -2.733367   -0.232163
H      -0.937933   -2.984558   -2.881182
