25

C       0.133743    1.591234    0.114194
C      -0.093560    0.081600   -0.015805
C       0.645556   -0.522237   -1.202829
C       2.199594   -0.574200   -1.195756
C       2.129241   -1.988080   -1.838680
C       3.110280   -3.046981   -1.360521
C       0.625779   -2.065864   -1.397473
O       0.414346   -2.715805   -0.160890
C       0.055818   -4.074788   -0.273810
H       1.197023    1.823748    0.239296
H      -0.217042    2.125959   -0.776067
H      -0.398507    2.000337    0.978744
H       0.225224   -0.427366    0.899617
H      -1.167547   -0.122364   -0.116779
H       0.297823   -0.052423   -2.131132
H       2.741982    0.201808   -1.741621
H       2.591855   -0.621375   -0.173942
H       2.168708   -1.901836   -2.930712
H       3.000726   -3.216245   -0.285071
H       2.965163   -4.004042   -1.874051
H       4.141695   -2.727433   -1.547336
H      -0.082254   -2.455316   -2.143350
H      -0.133781   -4.443713    0.737682
H      -0.859028   -4.199449   -0.873993
H       0.849772   -4.684581   -0.726982
