15

C       0.085625    1.585750   -0.070907
C      -0.002360    0.072655    0.069068
O       0.636201   -0.552791   -1.071873
C       1.462567   -1.674807   -0.720804
C       1.605931   -1.543731    0.760709
N       2.253007   -2.060864    1.757632
O       1.793935   -1.357641    2.858907
N       0.854577   -0.403453    2.507482
C       0.745909   -0.523392    1.221395
H       1.129101    1.910331   -0.078376
H      -0.386658    1.898133   -1.005404
H      -0.429867    2.070042    0.763461
H      -1.057435   -0.238177    0.101337
H       0.977345   -2.620054   -1.001868
H       2.408919   -1.598237   -1.265614
