25

C      -0.111993    1.608012    0.080739
C       0.048778    0.081339    0.051157
C       0.872585   -0.396798    1.255287
C      -1.334813   -0.592566   -0.035259
C      -1.373535   -2.120154   -0.163246
C      -0.525994   -2.655442   -1.318591
C      -1.217865   -2.963447    1.133884
O      -2.470875   -3.635800    0.904536
C      -2.802160   -2.728428   -0.163782
H       0.862062    2.108028    0.095557
H      -0.662007    1.969806   -0.794399
H      -0.662109    1.927533    0.974096
H       0.607639   -0.171834   -0.859698
H       0.349787   -0.191112    2.197010
H       1.078746   -1.470770    1.215695
H       1.837282    0.119952    1.294950
H      -1.923931   -0.300913    0.845913
H      -1.864988   -0.172065   -0.901976
H       0.540902   -2.465323   -1.164229
H      -0.658449   -3.737371   -1.420049
H      -0.815618   -2.189410   -2.267592
H      -0.374821   -3.664553    1.169278
H      -1.236074   -2.379670    2.063981
H      -3.594156   -2.024044    0.128948
H      -3.112143   -3.255426   -1.074721
