15

O      -0.543841    0.736294   -0.678116
C       0.199672    0.955064    0.243039
C       1.389931    1.894440    0.173479
C       1.532457    2.680352   -1.134620
C       1.954792    4.104686   -0.699549
N       1.526091    4.166528    0.687991
C       1.280740    2.965063    1.283188
O       1.019882    2.766888    2.449186
H       0.057741    0.485237    1.237148
H       2.277659    1.295735    0.420985
H       2.252680    2.237980   -1.824235
H       0.563126    2.697965   -1.638547
H       3.040278    4.249307   -0.787235
H       1.467091    4.880027   -1.298191
H       1.595727    4.998532    1.252842
