23

C      -0.168061    1.580188   -0.093960
C       0.048466    0.068933   -0.011652
C       0.892027   -0.530347   -1.195924
C       1.247147   -1.916656   -0.611362
C       1.976609   -1.316824    0.612464
C       2.907258   -0.336740   -0.087683
C       2.262731    0.130648   -1.162305
C       0.809558   -0.482947    1.257342
C       1.266380    0.540072    2.297679
H       0.776566    2.131142   -0.090080
H      -0.699965    1.838791   -1.016638
H      -0.771305    1.945580    0.743304
H      -0.938963   -0.406514   -0.047001
H       0.373900   -0.508640   -2.156403
H       0.370269   -2.517822   -0.346901
H       1.909687   -2.494943   -1.260220
H       2.450293   -2.014318    1.305698
H       3.871941   -0.019989    0.288764
H       2.594483    0.906375   -1.841162
H       0.148007   -1.194681    1.765377
H       1.954653    1.276910    1.874322
H       0.417969    1.083104    2.726332
H       1.783391    0.038229    3.123504
