20

C      -0.141189    1.515743    0.004777
C      -0.026965   -0.014697    0.008448
C      -1.434670   -0.575796   -0.202258
C       1.173855   -0.612170   -0.853427
C       2.118128   -0.177707    0.320878
C       0.878128   -0.629362    1.168098
C       0.865718   -2.117316    0.796831
C       1.059229   -2.106065   -0.526097
H       0.802400    2.042691    0.146464
H      -0.569803    1.857029   -0.944785
H      -0.823377    1.842286    0.798407
H      -1.849386   -0.214797   -1.150862
H      -1.457758   -1.665322   -0.214343
H      -2.104881   -0.228707    0.593043
H       1.346399   -0.312081   -1.888032
H       3.025852   -0.769967    0.448627
H       2.354320    0.885763    0.364489
H       0.746367   -0.346950    2.213619
H       0.714075   -2.947829    1.471534
H       1.109202   -2.924857   -1.229699
