18

C      -0.093639    1.577233   -0.075439
C       0.022511    0.055373   -0.025718
O       0.749957   -0.453493   -1.131487
C       0.775387   -0.479031    1.242721
C       2.257156   -0.017779    1.271510
C       0.076854   -0.047508    2.459053
C      -0.483326    0.323758    3.454138
C       0.742830   -1.957099    1.189441
N       0.722991   -3.111519    1.163482
H       0.890455    2.044151   -0.165080
H      -0.683367    1.867522   -0.951410
H      -0.596553    1.966560    0.812979
H      -0.985342   -0.382310    0.008075
H       0.241657   -0.290896   -1.931542
H       2.306343    1.064498    1.403733
H       2.778031   -0.490980    2.105558
H       2.742627   -0.294316    0.335147
H      -0.981229    0.639398    4.338025
