16

C      -0.215843    1.441206   -0.064594
N       0.024610    0.011322    0.073023
C       1.353946   -0.492598   -0.176870
C       0.801946   -0.483938    1.227154
C       1.396065    0.416692    2.287422
C       0.258750   -1.788220    1.723091
O       0.407697   -2.207909    2.843175
H       0.653640    2.074949    0.163325
H      -0.516507    1.638992   -1.098079
H      -1.041382    1.734949    0.590444
H       1.423551   -1.415450   -0.748677
H       2.157546    0.220272   -0.362407
H       1.920528    1.272432    1.859434
H       0.620252    0.785089    2.966157
H       2.104279   -0.157527    2.889841
H      -0.309559   -2.349711    0.948993
