17

O      -0.181028    1.362176    0.006588
C       0.019224   -0.035483   -0.095481
C       0.784159   -0.387418   -1.311135
N       1.422057   -0.648494   -2.238841
C       0.702687   -0.617473    1.147774
C      -0.036401   -0.549420    2.510138
N       0.147900   -2.027546    2.748204
C      -0.591022   -2.689111    1.662613
C       0.739843   -2.131145    1.346753
H       0.681936    1.790143    0.054470
H      -0.984343   -0.460171   -0.198373
H       1.706805   -0.189104    1.224630
H       0.489397    0.028073    3.271148
H      -1.084686   -0.234375    2.482270
H      -0.651944   -3.765856    1.785681
H      -1.501683   -2.228821    1.283965
H       1.595354   -2.762932    1.134773
