16

O       0.297095    0.034509    0.163552
C       0.102657    1.211107    0.042637
C      -1.108762    2.125525   -0.244699
C      -0.134955    3.312992    0.043979
N       0.939321    2.310066    0.159684
C       0.043854    4.340907   -1.049164
C       1.382936    4.871765   -1.397054
N       0.668096    3.976548   -2.325731
H      -1.483726    2.076921   -1.268617
H      -1.932612    2.001523    0.459491
H      -0.357301    3.813950    0.993877
H       1.833591    2.369444    0.627356
H      -0.814541    5.002642   -1.154272
H       1.494208    5.897804   -1.735205
H       2.243213    4.474513   -0.863704
H       1.064362    3.041281   -2.239382
