11

O       0.015021   -0.051389    0.002871
C      -0.013861    1.161839    0.009129
C      -1.265608    1.933390    0.030419
C      -1.244219    3.279055    0.037369
N      -0.034342    3.935333    0.024592
C       1.121333    3.202843    0.005192
N       1.187980    1.921519   -0.002626
H      -2.200924    1.389006    0.040215
H      -2.127945    3.905625    0.052712
H       0.006515    4.941325    0.029480
H       2.034700    3.797375   -0.003789
