19

C      -0.608643    1.200478   -0.725149
O      -0.717887   -0.208517   -0.680806
C      -0.886372   -0.718665    0.631370
C      -1.028982   -2.242861    0.589998
N      -1.141636   -2.704515    1.967524
C      -2.208208   -2.672130   -0.340976
O      -1.988418   -2.383531   -1.700273
C      -2.422932   -4.124643   -0.210560
N      -2.573580   -5.259686   -0.056436
H      -0.469146    1.483933   -1.770074
H      -1.515171    1.686645   -0.336060
H       0.254039    1.547605   -0.139298
H      -0.023866   -0.462090    1.261287
H      -1.782648   -0.272744    1.098047
H      -0.114902   -2.665515    0.158232
H      -2.035550   -2.430091    2.367309
H      -1.107280   -3.718397    2.003360
H      -3.125124   -2.181224    0.036717
H      -1.590001   -1.498848   -1.718391
