17

C      -0.065028    1.368119    0.025722
O      -0.024203   -0.055019    0.022680
C      -1.221635   -0.669422    0.039862
N      -2.373060   -0.022396    0.046943
N      -3.306704   -1.034338    0.026487
C      -2.742877   -2.264866    0.031600
N      -3.471042   -3.447943    0.099753
C      -1.371771   -2.083367    0.024969
N      -0.420873   -3.139475   -0.020816
H       0.974230    1.700221    0.005013
H      -0.601803    1.747024   -0.850370
H      -0.564258    1.744557    0.924902
H      -4.268110   -0.803859    0.202601
H      -4.214519   -3.507181   -0.586282
H      -2.835382   -4.230921   -0.014387
H       0.141381   -3.167661    0.825189
H       0.231806   -3.008990   -0.788287
