19

C      -0.134267    1.367066   -0.143386
O      -0.141117   -0.041249   -0.116705
C       0.757480   -0.614037   -1.033997
C       0.676638   -2.136786   -0.906032
C      -0.678451   -2.692383   -1.434577
O      -0.076168   -3.067635   -2.689684
C       1.245540   -2.850475   -2.167796
C       1.136910   -2.610806    0.384934
C       1.533619   -3.028474    1.440078
H       0.855033    1.774225    0.117142
H      -0.417305    1.758269   -1.133382
H      -0.863264    1.709940    0.594306
H       0.495695   -0.329071   -2.067259
H       1.789094   -0.275819   -0.841577
H      -1.046267   -3.560855   -0.876200
H      -1.479401   -1.956859   -1.552693
H       1.864627   -2.239168   -2.835134
H       1.765114   -3.788823   -1.940176
H       1.875785   -3.389422    2.378272
