14

C       0.286047    1.196807    0.410430
N      -0.435772    0.255491   -0.458845
C       0.348950   -0.609329   -1.223008
C       0.663664   -1.950934   -1.136809
O       0.262886   -2.813146   -0.175810
N       1.434246   -2.311070   -2.184747
N       1.645488   -1.258888   -2.940572
N       0.983387   -0.240514   -2.372799
H       0.938145    0.704128    1.145875
H       0.903644    1.860371   -0.201295
H      -0.443483    1.814903    0.939742
H      -1.103932   -0.283651    0.078243
H       0.605455   -3.681443   -0.421519
H       0.985645    0.665576   -2.813620
