21

C       0.037352    1.528994    0.098250
C       0.063877    0.017834    0.069114
C       0.841032   -0.797059   -1.026609
C       0.752949   -1.940926    0.033754
C       0.893631   -0.819611    1.094699
C      -0.762320   -2.192835    0.018570
O      -1.389899   -2.450333    1.298342
C      -2.000267   -1.138486    1.313898
C      -1.286040   -0.733367    0.010074
H       1.049977    1.945684    0.104920
H      -0.485977    1.933806   -0.775963
H      -0.479257    1.898469    0.991863
H       0.354511   -0.946431   -1.996799
H       1.862928   -0.438431   -1.171319
H       1.416354   -2.805102    0.012942
H       1.919914   -0.451865    1.168076
H       0.489527   -1.004135    2.091261
H      -1.092295   -2.904208   -0.745180
H      -3.092096   -1.207326    1.229812
H      -1.748108   -0.572264    2.219480
H      -1.923308   -0.396468   -0.809464
