16

C      -0.452190    1.420875    0.238195
C      -0.015243   -0.022786    0.153336
N       1.285499   -0.300235   -0.472549
C       1.095573   -0.614729    0.954336
C       1.922130    0.154869    1.929851
C       1.852349   -0.118015    3.371272
O       2.954805   -0.584514    2.594460
H       0.396206    2.083884    0.420970
H      -0.921177    1.733173   -0.700927
H      -1.182805    1.560888    1.042199
H      -0.825081   -0.716149   -0.074109
H       1.253562   -1.146197   -1.034040
H       0.987773   -1.661912    1.234142
H       2.228395    1.146856    1.602475
H       2.077852    0.673735    4.084598
H       1.179077   -0.892078    3.739312
