21

C       0.051998    1.555382    0.278527
C       1.539516    1.563659   -0.187028
C       1.386025    0.125201   -0.712222
C      -0.100464    0.059581   -0.071227
C       0.472816   -0.889873    1.066110
C       1.709992   -1.083955    0.165154
C       3.213985   -0.928830   -0.221808
C       2.362352   -0.736050   -1.563550
C       1.541164   -1.960632   -1.116232
H      -0.135613    1.818593    1.323620
H      -0.575385    2.189604   -0.353482
H       1.739850    2.299831   -0.970905
H       2.285166    1.711304    0.602846
H      -1.020857   -0.262709   -0.560073
H       0.645651   -0.346056    1.999630
H      -0.092524   -1.798440    1.290273
H       3.731062   -0.046447    0.160443
H       3.862600   -1.810821   -0.191158
H       2.777952   -0.543166   -2.557635
H       2.052936   -2.927069   -1.106657
H       0.531114   -2.044970   -1.523932
