27

C      -0.226465    1.610751   -0.043158
C      -0.391797    0.124749   -0.391319
C       0.736420   -0.466745   -1.248778
C       0.803115    0.234548   -2.612217
C       2.155660   -0.530795   -0.600979
C       2.340396   -1.953308   -1.183880
C       0.797015   -2.057741   -1.383428
C       0.155267   -2.799974   -0.203635
C       0.312037   -2.688784   -2.688287
H       0.737656    1.799645    0.441989
H      -0.285855    2.254337   -0.925625
H      -1.011489    1.932793    0.648369
H      -0.465349   -0.435845    0.545773
H      -1.351205   -0.020176   -0.907813
H       0.990062    1.305474   -2.486451
H       1.612179   -0.157406   -3.235545
H      -0.132705    0.122719   -3.171090
H       2.872650    0.234276   -0.911448
H       2.112343   -0.533957    0.492271
H       2.881416   -1.944847   -2.134412
H       2.800518   -2.705381   -0.536484
H       0.511604   -2.436693    0.765048
H      -0.936825   -2.714776   -0.212730
H       0.403790   -3.865935   -0.261779
H       0.547361   -3.759694   -2.701083
H      -0.774918   -2.593607   -2.799654
H       0.778943   -2.241351   -3.569010
