17

C      -0.084990    1.435269   -0.149353
C       0.002303   -0.078594    0.073482
C       0.717957   -0.451791    1.369459
N      -1.347639   -0.662387    0.043567
N      -2.056956   -0.936659    1.118932
N      -3.226682   -1.368455    0.693211
C      -3.156206   -1.320684   -0.653687
O      -4.151373   -1.685167   -1.463898
N      -1.991752   -0.879708   -1.108401
H       0.921612    1.856973   -0.220387
H      -0.621629    1.658410   -1.074399
H      -0.604541    1.916934    0.684545
H       0.513589   -0.536427   -0.778209
H       0.213573   -0.021316    2.237084
H       0.760448   -1.535334    1.502266
H       1.739670   -0.064569    1.331768
H      -4.882339   -1.972353   -0.902150
