18

O       0.010722    1.415248   -0.053513
C       0.046908    0.001811   -0.070331
C       0.742292   -0.623836    1.169974
C       0.066812   -1.989979    1.405759
C      -1.334530   -1.822173    0.819934
N      -1.975470   -0.537474    1.240605
C      -1.333591   -0.637131   -0.085070
C      -2.163650   -2.967047    0.592971
C      -2.847572   -3.943281    0.428366
H      -0.546260    1.660597    0.695788
H       0.576995   -0.265571   -0.991186
H       1.822939   -0.704082    1.034840
H       0.566711    0.034841    2.024232
H       0.575288   -2.789841    0.857167
H       0.040721   -2.276707    2.460882
H      -2.982280   -0.636634    1.132090
H      -1.948171   -0.599418   -0.977877
H      -3.453279   -4.801944    0.275420
