19

C       0.007909    1.510420    0.093082
C      -0.038905    0.017450   -0.027494
C       0.287430   -0.799442   -1.314222
C      -0.400317   -1.942950   -0.497407
C       0.558598   -2.036183    0.696624
O       0.776762   -0.630222    0.972674
C      -1.325683   -0.829119    0.028149
C      -2.547903   -0.774979    0.813705
O      -2.529287   -0.449135   -0.598523
H       1.012041    1.887321   -0.122198
H      -0.697601    1.963950   -0.608330
H      -0.260422    1.818647    1.108385
H      -0.302691   -0.489015   -2.177549
H       1.344198   -0.914429   -1.566975
H      -0.772406   -2.862528   -0.944881
H       0.116905   -2.526495    1.572129
H       1.510861   -2.523690    0.456487
H      -3.079041   -1.691854    1.065092
H      -2.733826    0.067337    1.477999
