17

C       0.089340   -1.185409    0.042205
C      -0.007228    0.015858    0.021799
C      -0.057675    1.425216    0.005449
C      -1.122304    2.227870   -0.130969
C      -0.694888    3.635392   -0.088724
C      -1.297539    4.731003   -0.933820
C      -1.482138    4.742000    0.569551
O       0.708427    3.633468    0.083624
C       1.180926    2.291739    0.151064
H       0.157986   -2.244814    0.058167
H      -2.150461    1.917043   -0.254868
H      -0.594866    5.441294   -1.354856
H      -2.146034    4.493805   -1.566619
H      -2.458940    4.512456    0.981635
H      -0.900938    5.459521    1.137795
H       1.692266    2.118286    1.109126
H       1.908159    2.105734   -0.652670
