21

C      -0.142936    1.552149   -0.109364
C      -0.032996    0.029009   -0.038364
C      -1.411169   -0.582895    0.255129
O      -1.412844   -0.869702    1.680664
C      -0.108383   -0.713598    2.279230
C       0.790775   -0.684438    1.077127
C       2.093965   -0.130524    0.434315
C       1.195265   -0.660850   -0.752915
C       0.955941   -1.912367    0.120223
H       0.815176    2.063203   -0.217752
H      -0.753692    1.829932   -0.976346
H      -0.644657    1.956386    0.777344
H      -2.220938    0.127910    0.061201
H      -1.639680   -1.502891   -0.292636
H      -0.063257    0.217551    2.862871
H       0.053728   -1.559240    2.955791
H       2.284568    0.939206    0.502226
H       3.006979   -0.700815    0.622003
H       1.451780   -0.633001   -1.814165
H       1.831222   -2.538053    0.311047
H       0.081112   -2.524965   -0.088973
