20

C       0.287972    1.308656    0.610979
C       0.016474   -0.035309   -0.081047
O       0.636230   -1.103329    0.649629
C      -1.491526   -0.327111   -0.119561
O      -1.909183   -0.491231    1.233998
C       0.578969   -0.079505   -1.510946
C       2.062218    0.278993   -1.665697
N       2.907714   -0.429546   -0.864548
O       2.444846    1.095688   -2.482110
H       1.362618    1.460549    0.733593
H      -0.112842    2.140482    0.022994
H      -0.184328    1.327238    1.596438
H       0.091173   -1.235088    1.436265
H      -2.029281    0.499333   -0.605546
H      -1.664830   -1.246122   -0.695955
H      -2.781318   -0.894234    1.243653
H       0.429301   -1.091663   -1.905024
H       0.031688    0.618065   -2.148377
H       2.536156   -0.961299   -0.091076
H       3.881635   -0.173505   -0.878347
