18

C       0.029929    1.427034    0.065503
C       1.368175    0.746515   -0.042445
C       1.742806    0.104538    1.302483
C       0.432619   -0.747732    1.249283
C       0.650439   -2.222946    0.934662
O      -0.427026   -2.753598    0.137179
C      -0.812137   -1.986801   -0.913797
N      -0.593076   -0.751493   -1.116451
C       0.056219   -0.064905   -0.066715
H      -0.281601    1.899642    0.995459
H      -0.298628    1.934089   -0.835699
H       2.050379    0.958007   -0.856247
H       2.647029   -0.509081    1.264289
H       1.831028    0.795634    2.146935
H      -0.275061   -0.625508    2.075706
H       1.580949   -2.357206    0.368356
H       0.691940   -2.852288    1.826026
H      -1.383656   -2.578088   -1.625826
