20

C      -0.123639    1.514476   -0.127943
C       0.007943    0.022478    0.081886
C       1.340768   -0.706897   -0.110570
C       2.526941    0.042320   -0.407123
N       3.480825    0.655603   -0.640327
C       0.689487   -0.603490    1.270894
C       1.338434    0.250964    2.341337
C       0.082869   -1.900918    1.786596
O       1.036447   -2.811331    2.305290
H       0.784409    2.055545    0.145374
H      -0.329006    1.733174   -1.180565
H      -0.952121    1.915364    0.465316
H      -0.837227   -0.544621   -0.302541
H       1.312589   -1.681453   -0.587149
H       1.833035    1.133292    1.933092
H       0.592272    0.585006    3.071384
H       2.106240   -0.320139    2.874874
H      -0.691991   -1.662859    2.532959
H      -0.412219   -2.428804    0.964585
H       1.349359   -2.476352    3.150620
