17

C      -0.020943    1.393715   -0.315588
O      -0.051235   -0.023718   -0.324113
C      -1.247646   -0.561393    0.156207
O      -2.331332   -0.380489   -0.751622
C      -2.567729   -1.587112   -1.465965
C      -1.805605   -2.636932   -0.716317
C      -1.080231   -2.061456    0.246272
C      -0.229906   -2.737496    1.229480
O       0.349974   -2.174373    2.129042
H       0.972025    1.692569   -0.657090
H      -0.778927    1.814527   -0.987308
H      -0.184511    1.788719    0.697709
H      -1.527472   -0.071817    1.099595
H      -3.648152   -1.783309   -1.483469
H      -2.230940   -1.513862   -2.512506
H      -1.852797   -3.695059   -0.945285
H      -0.167628   -3.841125    1.101370
