21

O       0.134233    1.423299   -0.093772
C       0.054060    0.016346   -0.023336
C       0.176849   -0.625850    1.402382
C      -1.331497   -0.246911    1.541500
C      -1.384970   -0.605914    0.022842
C      -1.262606   -2.183555   -0.137091
C      -1.129971   -2.831932    1.275990
C       0.297829   -2.203472    1.241219
C       0.243369   -2.578663   -0.275158
H      -0.444137    1.815816    0.566356
H       0.737562   -0.306519   -0.801804
H       0.907897   -0.214679    2.102036
H      -1.968775   -0.762520    2.255523
H      -1.474691    0.823044    1.719095
H      -2.163500   -0.175480   -0.610901
H      -1.989472   -2.582746   -0.846977
H      -1.829982   -2.586640    2.072043
H      -1.072414   -3.919787    1.195106
H       1.086167   -2.622005    1.869692
H       0.345787   -3.658584   -0.406714
H       0.890760   -2.091829   -1.001061
