20

C      -0.020434    1.582960    0.069406
C      -0.012163    0.053149    0.005543
C       0.701873   -0.490637   -1.236315
C       0.710733   -2.019990   -1.304543
C       1.478440   -2.558147   -2.527844
O       2.831859   -2.106468   -2.554661
C       1.401702   -4.020581   -2.602085
C       1.363398   -5.222297   -2.616235
H       0.999301    1.983294    0.082919
H      -0.530993    2.012646   -0.799673
H      -0.532125    1.943158    0.967397
H       0.471680   -0.348589    0.905894
H      -1.044606   -0.320614    0.026042
H       0.217540   -0.090867   -2.138519
H       1.735968   -0.128840   -1.261534
H       1.168078   -2.439407   -0.398088
H      -0.314191   -2.409175   -1.340959
H       1.030692   -2.132377   -3.435025
H       3.313387   -2.603334   -1.883617
H       1.325374   -6.283164   -2.650990
