18

C      -0.033235    1.516401    0.145997
C      -0.041162    0.028054    0.042843
C       0.044643   -0.733238   -1.052935
C       0.064566   -2.166809   -0.679348
C       1.229336   -2.689025    0.165334
C       2.529752   -1.986461    0.243263
O       2.729378   -0.858024    0.634217
N      -0.041339   -2.258236    0.776188
C      -0.114255   -0.859794    1.268435
H       0.866780    1.856468    0.672252
H      -0.051078    1.990269   -0.838625
H      -0.894514    1.880073    0.720180
H       0.107144   -0.382033   -2.075105
H      -0.464574   -2.905464   -1.277240
H       1.343516   -3.772028    0.176100
H       3.375270   -2.622978   -0.105137
H       0.690971   -0.647635    1.976436
H      -1.068033   -0.739605    1.799847
