18

O       0.091264   -0.431366   -0.174560
C       0.375371    0.633231   -0.655242
C       1.262398    1.667668    0.040637
N       1.412214    2.841076   -0.798952
C       1.332871    4.245584   -0.526251
C       2.216672    4.796646    0.647056
C       3.022127    3.761457    1.381883
C       3.446281    4.177278    0.000754
C       2.548770    3.633110   -1.165338
H       0.013157    0.958260   -1.656583
H       0.794190    1.901769    1.004485
H       2.222583    1.182102    0.253482
H       0.534161    4.829238   -0.972133
H       2.099444    5.807119    1.015984
H       3.645472    4.178131    2.168514
H       2.649219    2.775952    1.616823
H       4.401116    4.647740   -0.193826
H       2.872074    3.651563   -2.200970
