19

C      -0.079647    1.527797    0.039339
C       0.005709    0.017825    0.061650
C       1.316093   -0.689655   -0.211824
C       0.714721   -0.707947    1.163713
C       1.297419   -0.163320    2.448368
O       0.204594   -0.085982    3.391207
C       0.860599   -1.349624    3.203552
C       0.220806   -1.968175    1.940654
O      -1.154838   -2.220707    1.988737
H       0.842144    1.982990    0.416629
H      -0.238789    1.899617   -0.978662
H      -0.904720    1.888642    0.662671
H      -0.881753   -0.497114   -0.300001
H       1.307575   -1.610770   -0.786409
H       2.196251   -0.073084   -0.372818
H       2.141318    0.494637    2.616241
H       1.274984   -1.830910    4.081879
H       0.712297   -2.887421    1.610232
H      -1.550951   -1.435369    2.388853
