17

C      -0.039661    1.477477   -0.005541
C      -0.032432   -0.031072   -0.070177
C       0.730787   -0.697208   -1.144950
N       1.287339   -0.628757    0.252200
C       1.209391   -2.133932    0.309116
C      -0.096020   -2.802991    0.030885
C       0.701040   -2.244259   -1.132771
C       1.176678   -3.044638   -2.206747
N       1.563885   -3.683592   -3.091905
H       0.894113    1.887567   -0.398761
H      -0.873078    1.881838   -0.588710
H      -0.147462    1.814070    1.029957
H      -0.928111   -0.497048    0.325823
H       1.211334   -0.159907   -1.955922
H       2.043454   -2.648366    0.767870
H      -0.038962   -3.884698    0.098742
H      -1.065230   -2.402096    0.300124
