16

N      -0.240206   -1.026380   -0.501421
C      -0.114346    0.089476   -0.230617
C       0.058875    1.505017    0.088556
C       1.543550    1.927971    0.173674
C       2.257612    1.908072   -1.216169
N       1.879624    3.328719   -1.381395
C       1.701566    3.480508    0.076948
C       2.231255    1.278770    1.278700
N       2.785523    0.784881    2.164558
H      -0.416476    2.103732   -0.694982
H      -0.449121    1.725642    1.033026
H       3.333221    1.721865   -1.108037
H       1.844990    1.224422   -1.963963
H       2.583057    3.924545   -1.802048
H       0.836530    4.079446    0.380565
H       2.589046    3.822692    0.623646
