17

C      -0.265296   -1.219836    0.201393
C      -0.127345   -0.037548    0.038440
C       0.054045    1.398408   -0.150833
C       1.493417    1.824233   -0.053813
O       1.845469    3.107351   -0.588748
C       2.574905    1.941849   -1.024159
C       3.635814    1.565130    0.056389
C       3.575355    2.495610    1.238462
C       2.510677    1.444264    1.076762
H      -0.394574   -2.264636    0.339774
H      -0.331137    1.708773   -1.129172
H      -0.531757    1.945211    0.601504
H       2.619216    1.752153   -2.090021
H       4.450527    0.877419   -0.124389
H       4.302618    2.285276    2.016254
H       3.337287    3.542194    1.097724
H       2.335148    0.646321    1.784778
