14

N       0.002159   -1.147442    0.125747
C       0.032659    0.006376    0.061974
C       0.042363    1.438335   -0.068697
C      -0.875753    2.097336   -1.100236
O      -0.390580    3.427205   -1.211384
C       1.024902    3.394186   -1.044891
C       1.271360    2.292585   -0.028332
N       0.370966    2.242233    1.119990
H      -0.811400    1.550008   -2.052676
H      -1.923327    2.147760   -0.790178
H       1.542613    3.157993   -1.987380
H       1.339282    4.387410   -0.710223
H       2.265482    1.884415    0.115268
H      -0.229112    3.067102    1.137266
