19

C      -0.032816    1.553543    0.103885
C       0.009195    0.020956    0.057367
C       0.618702   -0.489316   -1.255356
C       0.790059   -0.556768    1.232129
O       0.112852   -0.174915    2.450509
C       0.672923   -0.574885    3.592082
N       1.739376   -1.258344    3.664857
C      -0.099778   -0.124770    4.739398
N      -0.665531    0.201406    5.692883
H       0.976000    1.974086    0.013032
H      -0.633566    1.949865   -0.720376
H      -0.464511    1.909996    1.042265
H      -1.018534   -0.357818    0.133928
H       1.656312   -0.153207   -1.365602
H       0.612709   -1.583010   -1.306913
H       0.056006   -0.109809   -2.113139
H       0.843429   -1.649674    1.193391
H       1.817015   -0.175379    1.267524
H       1.991351   -1.454607    4.630688
