20

C       0.107057    1.501852   -0.030650
N       0.135331    0.036263    0.036445
C      -1.043146   -0.727383    0.606699
C      -0.077379   -1.934741    0.701623
C       0.675481   -0.694399    1.269038
C       2.131380   -0.564280    1.616092
O       2.934094   -0.871064    0.488800
C      -0.614212   -0.401300    2.084304
O      -0.742451    0.875626    2.649829
H       1.137228    1.858200   -0.144435
H      -0.429522    1.779169   -0.945260
H      -0.345982    2.014050    0.820319
H      -2.032830   -0.687864    0.147900
H      -0.325472   -2.734907    1.400681
H       0.295906   -2.293929   -0.254358
H       2.329993    0.454236    1.987569
H       2.397563   -1.262843    2.418048
H       2.434131   -0.576355   -0.283577
H      -0.882811   -1.175654    2.817782
H      -1.606253    0.934148    3.069726
