20

C      -0.087634    1.537527   -0.117442
C      -0.081093    0.039252    0.097432
C      -1.226821   -0.700494   -0.562411
O       1.200445   -0.601828   -0.051006
C       0.597642   -0.583495    1.251500
C       1.308438    0.141626    2.342898
C       0.821436   -0.020099    3.765034
C       2.121616   -0.648603    3.342214
H       0.793346    2.013994    0.314561
H      -0.098233    1.761720   -1.189833
H      -0.982211    1.988511    0.325772
H      -1.221629   -0.526530   -1.644266
H      -1.145737   -1.776623   -0.390560
H      -2.191069   -0.355661   -0.173104
H       0.214325   -1.559369    1.565968
H       1.702155    1.114629    2.072626
H       0.848030    0.847858    4.413942
H      -0.026591   -0.675146    3.937481
H       2.150969   -1.726971    3.225725
H       3.048463   -0.214661    3.699669
