21

C       0.276378    0.822442   -0.879106
C      -0.342071    0.277530    0.413247
N      -1.474428   -0.628539    0.327046
C      -1.932078   -0.981348   -0.789024
O      -2.957206   -1.857935   -0.855214
C      -3.542507   -2.079325   -2.148941
C      -4.106127   -3.494231   -2.134916
C      -4.603450   -1.017318   -2.431344
H       1.109641    1.487746   -0.633399
H       0.668871    0.021551   -1.515090
H      -0.446115    1.399817   -1.466265
H       0.435875   -0.236583    0.993959
H      -0.655592    1.120701    1.043512
H      -1.563861   -0.658444   -1.772261
H      -2.748367   -2.012843   -2.907578
H      -4.875412   -3.588864   -1.362610
H      -4.555166   -3.735656   -3.102781
H      -3.317332   -4.220599   -1.923561
H      -5.062712   -1.183405   -3.410902
H      -5.386646   -1.053351   -1.668000
H      -4.166598   -0.014134   -2.425053
