19

C       0.120222    1.513403   -0.288747
C       0.058524    0.023426   -0.049576
C       1.292604   -0.818614   -0.075938
C       0.574581   -0.594056    1.256616
C       1.181746    0.220850    2.256504
C       1.696548    0.921762    3.098563
C       2.320857    1.764270    4.093595
C       2.141365    1.318170    5.532402
O       2.945167    2.760920    3.789155
H       1.026832    1.947691    0.140547
H       0.114556    1.728745   -1.362502
H      -0.738120    2.022182    0.161837
H      -0.844818   -0.458249   -0.414306
H       1.248582   -1.819070   -0.491193
H       2.244969   -0.315298   -0.198734
H       0.005692   -1.438248    1.634509
H       2.544287    0.308699    5.667715
H       2.652143    2.016679    6.196926
H       1.075975    1.273460    5.782907
