11

O      -0.000639   -0.013604    0.133162
C      -0.028617    1.181783    0.057356
N      -1.110008    1.994515   -0.222984
C      -0.820149    3.379451    0.095774
C       0.716660    3.345570   -0.011889
O       1.070666    1.979931    0.233052
H      -2.024157    1.595340   -0.085162
H      -1.267217    4.074020   -0.620565
H      -1.151915    3.657789    1.105823
H       1.053616    3.625550   -1.016330
H       1.218053    3.975986    0.724245
