18

C      -0.090534    1.438291    0.043534
C      -0.019252   -0.046846   -0.008603
C      -0.057754   -0.915520   -1.033434
C       0.113996   -2.305913   -0.405972
C      -0.721144   -2.288783    0.889819
C       0.432641   -2.719189    1.819987
C       0.427985   -1.384649    2.618545
C       0.150596   -1.014927    1.152553
N       1.205949   -2.044485    0.662887
H       0.816994    1.862088    0.491162
H      -0.209132    1.865909   -0.955728
H      -0.931254    1.777502    0.661830
H      -0.144290   -0.697226   -2.089225
H       0.226511   -3.170866   -1.062138
H      -1.803362   -2.398508    1.030000
H       0.697837   -3.714016    2.178140
H      -0.386083   -1.234065    3.331569
H       1.391898   -1.066668    3.024465
