22

C      -0.700129    1.385384    0.235684
C      -0.939312   -0.079764    0.612649
C      -0.767591   -1.009321   -0.596699
N      -0.954627   -2.440030   -0.428944
C      -1.262814   -2.921727    0.688776
O      -1.433478   -4.263167    0.817431
C      -1.735105   -4.710066    2.115619
C      -3.158243   -4.634711    2.601884
C      -2.546252   -5.959945    2.195886
H      -0.827618    2.045476    1.098870
H       0.314138    1.534732   -0.150557
H      -1.400335    1.713348   -0.540529
H      -0.241806   -0.371678    1.408332
H      -1.949840   -0.189756    1.026985
H      -1.453882   -0.687578   -1.392882
H       0.238385   -0.865196   -1.015898
H      -1.422047   -2.369345    1.621994
H      -0.928456   -4.562893    2.830458
H      -3.335326   -4.437058    3.653240
H      -3.884498   -4.198778    1.925387
H      -2.866146   -6.384440    1.251547
H      -2.300975   -6.683891    2.964110
