16

C      -0.046196    1.577007   -0.002643
C       0.027461    0.046339    0.019211
C       0.784177   -0.565150   -1.192547
C       1.550690   -1.794080   -0.641517
C       1.609753   -1.514174    0.842440
C       0.786769   -0.529430    1.196837
H       0.958319    2.014587   -0.008061
H      -0.574015    1.933975   -0.893656
H      -0.576021    1.964097    0.874525
H      -1.005043   -0.337030    0.044313
H       0.118679   -0.813685   -2.023619
H       1.504021    0.172573   -1.565636
H       1.012188   -2.733100   -0.835011
H       2.540600   -1.912470   -1.096908
H       2.226570   -2.091474    1.522991
H       0.629562   -0.177269    2.211545
