21

C      -0.105572    1.596831    0.025570
C       0.039770    0.077068    0.003705
C       0.914914   -0.530402   -1.122578
C       2.348897   -0.091476   -0.754527
C       2.297530   -0.637512    0.666910
C       1.365206   -1.826475    0.558567
O       0.920879   -1.929184   -0.783084
C       0.841745   -0.542361    1.154747
C       0.457995   -0.384132    2.599410
H       0.855859    2.103323    0.151117
H      -0.563149    1.963281   -0.900004
H      -0.748893    1.911357    0.853882
H      -0.954608   -0.384152   -0.047862
H       0.583106   -0.402054   -2.151326
H       3.093397   -0.597610   -1.375805
H       2.503718    0.987726   -0.816999
H       3.137380   -0.615670    1.348875
H       1.470653   -2.770158    1.075835
H       0.503182    0.663986    2.917988
H      -0.562034   -0.743282    2.780806
H       1.128696   -0.951939    3.252859
