20

C       0.236193    1.442302    0.045103
C       0.077163   -0.004141    0.007211
C      -0.043176   -1.202883   -0.000790
C      -0.229387   -2.654510   -0.069155
O      -1.612199   -3.014801   -0.029386
C       0.451256   -3.231707   -1.303380
N       1.862880   -3.615421   -1.161727
C       0.852653   -4.658840   -1.416961
C       0.632387   -5.699345   -0.345221
H       1.178549    1.720676    0.529561
H       0.241421    1.873047   -0.962201
H      -0.576531    1.916573    0.606160
H       0.218000   -3.116893    0.815847
H      -2.080065   -2.418716   -0.623925
H       0.151331   -2.737045   -2.227134
H       2.383714   -3.390183   -2.004175
H       0.812369   -5.056577   -2.431148
H       0.752351   -5.275974    0.654006
H      -0.373407   -6.124584   -0.421283
H       1.357828   -6.513279   -0.449116
