19

C      -0.112100    1.537630   -0.305668
C       0.012772    0.025813   -0.280535
C       0.841923   -0.847200   -1.259482
C       2.103947   -0.463072   -0.441000
C       2.853196    0.867259   -0.508167
N       1.032493   -0.681980    0.669844
C       0.695136   -1.943696   -0.166838
C      -0.587980   -2.584828    0.082653
N      -1.585459   -3.141584    0.261337
H       0.751471    2.076710   -0.684902
H      -0.970760    1.803459   -0.931567
H      -0.324653    1.897528    0.706869
H      -0.987639   -0.370243   -0.083237
H       0.731710   -0.974122   -2.342164
H       2.839604   -1.271933   -0.392095
H       2.630829    1.494838    0.357843
H       3.930335    0.681113   -0.505084
H       2.626026    1.435727   -1.413348
H       1.485018   -2.696698   -0.117905
