17

C       0.022295    1.406059   -0.412282
C      -0.128858   -0.042169    0.109690
C       0.636324   -0.266444    1.425877
C       2.130539   -0.278107    1.195239
O       2.917656    0.470517    1.712855
C      -1.600598   -0.370070    0.275099
O      -2.166224   -0.507953    1.334516
C      -2.436098   -0.560861   -1.003014
O      -1.972408   -0.567960   -2.112448
H       1.081268    1.651911   -0.529247
H      -0.465978    1.529396   -1.380821
H      -0.409230    2.119752    0.296693
H       0.253663   -0.713822   -0.671054
H       0.390013    0.501361    2.163104
H       0.352361   -1.239933    1.846728
H       2.473420   -1.060502    0.476165
H      -3.512428   -0.724269   -0.785113
