14

O      -0.329986    1.337539   -0.018846
C      -0.116038   -0.000250    0.033707
C      -0.223213   -0.954288   -1.126073
C      -1.138014   -1.210445    0.049124
N      -0.417084   -1.757331    1.193182
C       0.543737   -0.722928    1.215887
O       1.500239   -0.532350    1.903762
C      -2.592827   -1.037855    0.015466
O      -3.191094   -0.604236   -0.943482
H      -0.266887    1.645712   -0.928767
H      -0.731307   -0.540552   -1.994793
H       0.569321   -1.664285   -1.345560
H      -0.145871   -2.732494    1.257439
H      -3.102986   -1.306763    0.963912
