25

C      -0.075295    1.691131    0.213438
C       0.042046    0.167489    0.095060
C      -1.312473   -0.529876   -0.104929
C      -1.982480   -0.297562   -1.445551
C      -2.680917   -1.361929   -1.833723
C      -2.595966   -2.487187   -0.822240
C      -2.629157   -3.896510   -1.421847
C      -1.325349   -2.091467    0.000889
C      -0.042959   -2.740829   -0.535987
H       0.904965    2.151486    0.372126
H      -0.504868    2.137073   -0.689736
H      -0.716384    1.973512    1.056172
H       0.717365   -0.082956   -0.731288
H       0.512358   -0.223227    1.006684
H      -1.984645   -0.140826    0.679605
H      -1.926224    0.645213   -1.978912
H      -3.284178   -1.430329   -2.733461
H      -3.465970   -2.403152   -0.149959
H      -1.827930   -4.050839   -2.150500
H      -2.533450   -4.664008   -0.646233
H      -3.580750   -4.067147   -1.936884
H      -1.445182   -2.394456    1.047569
H       0.132631   -2.484003   -1.585878
H       0.830972   -2.420480    0.037670
H      -0.096717   -3.830679   -0.462706
