19

C       0.359354    0.775763    0.392212
O      -0.319275    0.295500   -0.761078
C       0.444030   -0.545235   -1.594638
C       0.469944   -2.011014   -1.128889
N      -0.888699   -2.450978   -0.907332
C       1.337710   -2.918156   -2.069673
N       2.291163   -3.048260   -0.965495
C       1.552936   -2.357107   -0.041175
O       1.698557   -2.162026    1.139573
H       0.630680   -0.031913    1.080685
H       1.272067    1.321522    0.109604
H      -0.324539    1.468980    0.887769
H      -0.047282   -0.519151   -2.574037
H       1.472102   -0.169656   -1.710480
H      -0.922131   -3.258325   -0.293211
H      -1.397356   -1.699125   -0.450301
H       0.832106   -3.847957   -2.345737
H       1.744915   -2.435411   -2.964792
H       3.125901   -3.605625   -0.863876
