21

C      -0.068175    1.486442    0.004113
C       0.119659   -0.013760   -0.050929
C       0.750477   -0.752985   -1.198440
C       1.955071   -0.001169   -1.801227
C       2.641867    0.035652   -0.395306
C       1.434002   -0.728885    0.188648
C       1.379338   -2.132825    0.670618
C       0.753275   -2.922237   -0.215192
C       0.329489   -2.189356   -1.487824
H       0.772317    2.032843   -0.430821
H      -0.969833    1.780410   -0.544794
H      -0.182120    1.824845    1.039666
H      -0.712879   -0.562995    0.382639
H       2.507104   -0.620646   -2.512290
H       1.745557    0.960622   -2.281307
H       3.560558   -0.553299   -0.364709
H       2.851745    1.021122    0.032279
H       1.771684   -2.470060    1.624761
H       0.526425   -3.972149   -0.053362
H      -0.745483   -2.301356   -1.681600
H       0.841100   -2.595792   -2.371506
