17

C       0.000171    1.527610    0.236403
C      -0.016547    0.043988   -0.152968
C      -1.385847   -0.569674   -0.080401
C      -2.037900   -1.065876    1.180380
C      -1.788921   -2.032296    0.034994
N      -2.890736   -2.221967   -0.882894
C      -3.102369   -1.077686   -1.396612
O      -2.302290   -0.038093   -1.046048
H       1.012275    1.937380    0.170081
H      -0.646326    2.109139   -0.426883
H      -0.356984    1.668557    1.261577
H       0.374561   -0.082001   -1.169818
H       0.643574   -0.526846    0.510445
H      -1.388429   -1.161541    2.044010
H      -3.062908   -0.784901    1.398199
H      -1.102174   -2.861737    0.155516
H      -3.875303   -0.834097   -2.115261
