21

C      -0.102802    1.510299   -0.032523
C      -0.074917   -0.018410   -0.006185
C      -1.451349   -0.613619   -0.272720
C       1.107462   -0.599289   -0.839641
N       1.916133   -0.642985    0.394472
C       2.823373   -1.755266    0.566522
C       3.542239   -1.670002    1.843786
N       4.094401   -1.615049    2.856724
C       0.698392   -0.571362    1.229176
H       0.892104    1.922635    0.158836
H      -0.444368    1.878491   -1.006489
H      -0.785941    1.901165    0.729793
H      -1.829263   -0.301785   -1.253196
H      -1.429277   -1.707849   -0.253900
H      -2.175098   -0.279422    0.479363
H       0.874722   -1.598828   -1.243388
H       1.528415    0.019350   -1.640142
H       2.319304   -2.741633    0.527461
H       3.561026   -1.743378   -0.245034
H       0.787514    0.068860    2.112406
H       0.328792   -1.562409    1.540219
