20

C      -0.189927    1.626797   -0.126323
C       0.135092    0.139603    0.016396
N       0.801558   -0.401626   -1.160777
N       0.076084   -0.597151   -2.284699
N       0.876470   -1.074889   -3.193642
C       2.120455   -1.191748   -2.660709
C       2.100477   -0.765217   -1.349732
C       3.184694   -0.680650   -0.322638
C       3.756970    0.734867   -0.124775
H       0.718803    2.222252   -0.253334
H      -0.830930    1.788315   -0.995944
H      -0.713530    1.981930    0.766221
H       0.781400   -0.043469    0.878290
H      -0.782780   -0.436629    0.160542
H       2.950055   -1.578999   -3.231103
H       2.826600   -1.070272    0.638470
H       3.988924   -1.352965   -0.637840
H       4.139701    1.133288   -1.068637
H       2.996050    1.428381    0.245728
H       4.577042    0.719383    0.599330
