19

O       0.071943   -0.092913    0.091447
C      -0.022577    1.109423    0.048335
C      -1.344173    1.868477    0.104939
C      -1.271031    3.099039    1.046655
C       0.077034    3.841909    0.945927
C       0.423806    4.199300   -0.505938
O       0.987283    3.006017   -1.072977
C       1.192530    2.042134   -0.033161
C       1.225539    2.864924    1.263445
H      -1.553009    2.205329   -0.917976
H      -2.140243    1.178806    0.393218
H      -2.097031    3.781908    0.819887
H      -1.412113    2.770881    2.083336
H       0.075341    4.722365    1.593728
H      -0.450762    4.495488   -1.096939
H       1.161996    5.010863   -0.558205
H       2.095664    1.468349   -0.249376
H       2.185404    3.379884    1.369042
H       1.052455    2.263348    2.160175
