21

O      -0.043264    1.424043   -0.228154
C       0.003392    0.030571    0.049355
C      -1.404874   -0.518883   -0.014136
C      -2.180175   -0.522501   -1.365977
C      -2.884364   -1.793786   -0.812905
C      -1.599746   -2.059692    0.015147
C      -4.004091   -1.354372    0.138540
O      -3.702042   -0.111395    0.757256
C      -2.328029    0.094809    1.056179
H       0.848032    1.777306   -0.156399
H       0.629525   -0.500691   -0.685938
H       0.434434   -0.163437    1.046784
H      -2.795876    0.346540   -1.603821
H      -1.517300   -0.754343   -2.203764
H      -3.232203   -2.565125   -1.504008
H      -0.833429   -2.582161   -0.566203
H      -1.708233   -2.542831    0.992488
H      -4.942446   -1.192788   -0.403990
H      -4.183151   -2.138436    0.894236
H      -2.072870   -0.327958    2.043714
H      -2.187870    1.178160    1.099989
