13

C      -0.006674    1.415764   -0.002418
O      -0.021716    0.006499    0.045328
C       0.618570   -0.568132   -1.075082
C       0.581839   -2.019553   -0.984643
C       0.570452   -3.227962   -0.943130
C       0.553458   -4.587311   -0.889084
C       0.539393   -5.793703   -0.842819
H       1.020266    1.814090   -0.009889
H      -0.531527    1.800844   -0.891002
H      -0.518592    1.772154    0.893712
H       0.128751   -0.245487   -2.011297
H       1.668419   -0.230177   -1.139290
H       0.525558   -6.854403   -0.799657
