15

N       0.066062    1.244259    0.015504
C      -0.041363   -0.117850   -0.018927
N      -1.138821   -0.823578   -0.000349
C      -0.671315   -2.123706    0.025393
O      -1.524952   -3.164756    0.050032
C       0.685245   -2.167641    0.019169
C       1.705766   -3.234596    0.011752
O       2.395352   -3.390656   -1.230642
O       1.095818   -0.820607   -0.012239
H       0.921131    1.618409   -0.367196
H      -0.769421    1.728838   -0.273887
H      -2.413701   -2.790896    0.080469
H       2.493492   -3.028238    0.744417
H       1.206145   -4.165998    0.316238
H       1.722960   -3.501124   -1.911445
