15

O       0.141635    1.441135    0.456372
C       0.098429    0.066770    0.107146
C      -1.256354   -0.473668    0.007425
C      -2.387960   -0.875152   -0.100054
C      -3.730622   -1.395788   -0.205663
O      -4.221278   -1.569156   -1.565326
C      -4.438307   -2.986901   -1.430441
C      -3.922388   -2.931205    0.008467
O      -3.741557   -3.695182    0.898902
H      -0.403882    1.919576   -0.176810
H       0.630952   -0.129396   -0.837236
H       0.649407   -0.460172    0.894071
H      -4.435452   -0.802186    0.393603
H      -5.491724   -3.276258   -1.534139
H      -3.826583   -3.581904   -2.120355
