22

C      -0.158201    1.507796    0.191807
C       0.047631    0.005522   -0.016774
C       0.769503   -0.408125   -1.318927
C       0.028722    0.074519   -2.575805
C       2.223840    0.118433   -1.338468
O       2.968401   -0.274540   -0.198518
N       0.803508   -1.889926   -1.288216
C       1.320514   -2.707721   -2.241672
O       1.915314   -2.358597   -3.242030
H       0.793265    2.044378    0.244215
H      -0.760198    1.956458   -0.603511
H      -0.681365    1.682483    1.136656
H       0.630525   -0.392454    0.821259
H      -0.930816   -0.494016   -0.001424
H       0.054686    1.165517   -2.645495
H       0.494520   -0.340164   -3.471277
H      -1.019172   -0.241134   -2.549881
H       2.704536   -0.208181   -2.267038
H       2.206991    1.211906   -1.330190
H       3.091710   -1.227633   -0.257030
H       0.301807   -2.340346   -0.537913
H       1.146814   -3.775785   -1.994291
