18

O      -0.314458    1.552750   -0.034778
C      -0.088216    0.160410    0.034852
C      -1.396478   -0.614221    0.014936
O      -2.038862   -0.289520   -1.205603
C      -3.353811   -0.789786   -1.313740
C      -3.914773   -0.370922   -2.643921
C      -5.358196   -0.200086   -2.842149
O      -4.497762    0.930836   -2.715988
H      -0.927101    1.682803   -0.768752
H       0.546149   -0.189445   -0.795582
H       0.444358   -0.037850    0.970867
H      -1.215097   -1.699462    0.087612
H      -2.024501   -0.311090    0.867604
H      -3.352781   -1.891267   -1.241439
H      -3.992126   -0.398703   -0.505778
H      -3.296443   -0.633540   -3.502711
H      -5.787469   -0.360905   -3.829740
H      -6.041068   -0.363254   -2.008840
