18

O       0.086561    1.388392    0.079081
C       0.008569   -0.002699    0.015994
C      -1.327379   -0.719574    0.039241
C      -2.595858    0.129253    0.063867
C      -2.964484    0.644196   -1.329505
O      -1.817861    1.153921   -2.010180
C      -0.938418    0.100866   -2.405198
C      -0.460517   -0.716655   -1.221956
H      -0.522881    1.746729   -0.582834
H       0.822015   -0.445138    0.582033
H      -1.370107   -1.647969    0.599542
H      -3.432619   -0.451487    0.464111
H      -2.448281    0.983891    0.735725
H      -3.412509   -0.159315   -1.934638
H      -3.679686    1.469527   -1.276117
H      -1.450289   -0.546781   -3.134813
H      -0.101190    0.589422   -2.915039
H       0.037109   -1.643146   -1.494668
