23

C      -0.039135    1.500201   -0.076211
C      -0.142560   -0.013304   -0.145093
O       0.849445   -0.487884   -1.049033
C       0.865528   -1.860858   -1.186391
C       1.605807   -2.800826   -0.220867
C       2.094993   -3.627452   -1.455985
C       1.358346   -2.655925   -2.388124
C      -0.124028   -2.591080   -2.057924
C      -0.989143   -3.768535   -1.659977
H       0.950716    1.801824    0.278011
H      -0.196685    1.940693   -1.064928
H      -0.791311    1.903458    0.608524
H       0.009945   -0.456639    0.851238
H      -1.140645   -0.323374   -0.490900
H       2.431424   -2.285936    0.275478
H       1.008963   -3.322271    0.534194
H       3.179652   -3.588600   -1.575082
H       1.780477   -4.674596   -1.500354
H       1.735085   -2.292566   -3.336817
H      -0.624004   -1.884045   -2.718408
H      -0.485371   -4.434443   -0.954191
H      -1.916396   -3.430325   -1.184272
H      -1.265627   -4.366454   -2.535826
