15

C      -0.019819    1.518278    0.065965
C       0.001761    0.019441   -0.025735
C      -0.026617   -0.683149   -1.190213
C      -0.004672   -2.141003   -1.253266
O      -0.027939   -2.797022   -2.287739
C       0.052501   -2.753959    0.080379
F       0.077770   -4.081830    0.150194
C       0.079536   -2.028181    1.219225
N       0.054263   -0.655493    1.166333
H       0.878147    1.898266    0.567429
H      -0.064544    1.959636   -0.929982
H      -0.889788    1.868831    0.633817
H      -0.067949   -0.154169   -2.134722
H       0.121302   -2.485830    2.198870
H       0.075271   -0.135784    2.027783
