18

N       0.949459    0.002308    0.383493
C      -0.161177    0.335147   -0.138660
N      -1.348961   -0.123250    0.396827
C      -2.594357    0.175922   -0.158093
O      -2.721759    0.846441   -1.162180
N      -3.646301   -0.382482    0.532527
C      -4.996417   -0.044269    0.188518
C      -5.626777   -0.719975   -0.996742
C      -6.049227   -1.099998    0.399784
H       1.718767    0.427150   -0.130106
H      -0.327783    0.974552   -1.007661
H      -1.262764   -0.747091    1.186253
H      -3.482808   -0.684593    1.481146
H      -5.278142    0.990430    0.369624
H      -6.302474   -0.132560   -1.606787
H      -5.010662   -1.421071   -1.545866
H      -5.721299   -2.062239    0.777806
H      -7.019862   -0.780617    0.761087
