17

O      -0.092728    1.436542    0.089852
C       0.008597    0.026553    0.005773
C      -1.409017   -0.532630    0.045739
C      -1.418272   -2.060204   -0.035215
N      -2.768850   -2.602145    0.017207
N      -3.513039   -2.602125    1.116223
C      -4.636019   -3.150162    0.667556
N      -4.576213   -3.467345   -0.644480
N      -3.380221   -3.110780   -1.045628
H       0.794209    1.806838    0.059162
H       0.508281   -0.286073   -0.926135
H       0.595646   -0.385374    0.843480
H      -1.895748   -0.211901    0.971723
H      -1.982775   -0.115825   -0.788442
H      -0.994389   -2.416820   -0.976389
H      -0.856235   -2.502554    0.792356
H      -5.498420   -3.325631    1.289785
