14

O       0.111257    1.290175    0.167103
C       0.096766   -0.046303    0.014813
N       0.078751   -0.704774   -1.107114
C       0.021646   -2.041506   -0.699697
C      -0.000701   -2.115809    0.676387
N       0.058069   -3.415251    1.086146
C       0.056137   -4.194548   -0.074473
C       0.052967   -3.381605   -1.187087
N       0.090917   -0.822008    1.160851
H       0.098193    1.657683   -0.725777
H      -0.061458   -3.773049    2.016414
H       0.037878   -5.268996    0.006472
H       0.075186   -3.721197   -2.210490
H      -0.048477   -0.471104    2.092053
