17

C       0.188209    0.852307   -0.356891
O      -0.437974   -0.051448    0.541987
C       0.456574   -0.683185    1.391694
C       0.155056   -2.056463    1.889926
N      -0.435607   -2.891545    0.833616
C       0.686767   -2.678487   -0.029103
N       1.045881   -3.130402   -1.150313
C       1.387763   -1.798675    0.958678
O       2.736064   -1.700836    1.172602
H       0.910166    0.336172   -1.002552
H      -0.602380    1.287278   -0.971775
H       0.707032    1.657817    0.182323
H       0.941805   -0.029597    2.122497
H       0.094291   -2.350578    2.929681
H      -1.337340   -2.589587    0.474763
H       0.330571   -3.740856   -1.550762
H       3.125786   -2.571079    1.025554
