16

C      -0.012869    1.622633   -0.259601
C       1.549794    1.409410    0.049962
C       1.039565    0.251778    0.943623
O       1.057740   -1.246604    1.120513
C      -0.426235   -1.006301    1.153996
C      -0.572082   -0.185629    2.434057
C       0.437114    0.673998    2.297283
C      -0.145935    0.087842    0.042469
H      -0.471779    2.271678    0.488208
H      -0.279324    1.956451   -1.264324
H       2.079275    1.074719   -0.843752
H       2.097303    2.226929    0.527459
H      -1.008369   -1.913905    0.993920
H      -1.299390   -0.323374    3.220262
H       0.790749    1.471277    2.935466
H       0.157651   -0.451692   -0.858870
