21

C      -0.291089    1.587279   -0.010332
C       0.024667    0.094829    0.001774
C       1.064414   -0.553870   -0.989576
C       2.238124    0.382883   -1.318796
C       2.928685    0.639721    0.051327
C       2.325236   -0.420909    0.969337
C       1.555796   -1.453538    0.179121
C       0.815133   -0.553046    1.139668
O       0.262141   -0.926635    2.355941
H       0.603556    2.209122    0.080285
H      -0.805363    1.874650   -0.934421
H      -0.956111    1.841465    0.823101
H      -0.912057   -0.467568   -0.090496
H       0.625737   -1.042099   -1.860186
H       2.928801   -0.118926   -2.005119
H       1.911584    1.305833   -1.807979
H       4.013912    0.510269   -0.017683
H       2.758045    1.657299    0.417994
H       2.883628   -0.767336    1.833157
H       1.717103   -2.522694    0.189848
H       0.392005   -0.206457    2.982175
