18

N       0.051109    0.824013   -0.997830
C       0.071532   -0.110218   -0.016698
O       1.080451   -0.372497    0.626038
C      -1.236824   -0.854339    0.270711
C      -2.441442   -0.448549   -0.543445
C      -2.734321   -1.348483   -1.485140
C      -1.797380   -2.529226   -1.454492
C      -1.095965   -2.385392   -0.081692
O       0.212300   -2.889869   -0.107463
H       0.922857    1.252387   -1.264936
H      -0.749902    0.919474   -1.598926
H      -1.387771   -0.733850    1.348447
H      -2.978115    0.478712   -0.371290
H      -3.547035   -1.257854   -2.198151
H      -2.311093   -3.490145   -1.560140
H      -1.050976   -2.478019   -2.258142
H      -1.697977   -2.927037    0.664399
H       0.775507   -2.284503    0.401287
