16

C       0.102034    1.386403    0.006508
O       0.002705   -0.030096    0.003492
C      -1.228712   -0.581565    0.010921
C      -2.406965    0.118681    0.021429
C      -3.687812   -0.550757    0.028878
O      -4.790043   -0.025599    0.038417
N      -3.586182   -1.960436    0.024287
C      -2.417695   -2.655070    0.013875
C      -1.223964   -2.012998    0.006942
H       1.168771    1.613004   -0.000767
H      -0.371525    1.819764   -0.882140
H      -0.358329    1.815035    0.904338
H      -2.446897    1.198125    0.024726
H      -4.474213   -2.441092    0.029450
H      -2.502237   -3.735069    0.011528
H      -0.286706   -2.549899   -0.001361
