9

C      -0.006939    1.495596   -0.010634
C      -0.029862   -0.015946    0.062487
O      -0.088152   -0.632151    1.103348
C       0.023370   -0.702567   -1.220624
C       0.067381   -1.260583   -2.286231
H       0.904298    1.832819   -0.516554
H      -0.853385    1.855569   -0.605528
H      -0.052378    1.910998    0.996959
H       0.104669   -1.770360   -3.218326
