14

O       0.086736    1.351220    0.012773
C       0.068998    0.003998    0.056474
N       0.083790   -0.720922   -1.045376
N       0.136877   -2.050447   -0.626346
C       0.030501   -2.082172    0.731158
C       0.037967   -0.789218    1.237013
C       0.031340   -0.904392    2.665723
C       0.017588   -2.245060    2.946197
N       0.030191   -2.981910    1.753630
H       0.109515    1.599091   -0.920686
H      -0.213680   -2.733339   -1.276694
H       0.035529   -0.110625    3.395283
H      -0.004548   -2.761729    3.892294
H      -0.008440   -3.982853    1.688938
