20

O       0.746403   -0.610940   -1.104763
C       0.116450   -0.024736    0.019320
C      -1.347423   -0.445062    0.083344
C      -2.285641    0.180173    1.138346
C      -2.408075    1.632983    0.626257
C      -2.715897    1.269052   -0.821369
C      -3.487426   -0.006679   -0.801799
C      -3.629704   -0.421488    0.661080
N      -2.047863   -0.018321   -1.162226
H       0.132926   -0.481850   -1.839854
H       0.649647   -0.379685    0.908426
H       0.207569    1.072048   -0.005304
H      -1.376056   -1.540229    0.127083
H      -2.029089    0.041408    2.187284
H      -3.235604    2.171414    1.099434
H      -1.499220    2.226976    0.745939
H      -2.796573    2.002970   -1.613378
H      -4.196100   -0.292813   -1.569348
H      -3.685726   -1.505737    0.797234
H      -4.499862    0.037634    1.141238
