23

C       0.642733    1.552791   -0.033480
C       0.103538    0.131173    0.007749
C      -1.024112   -0.122724    0.974839
C       0.383573   -0.634012    1.285897
C       0.680553   -2.078664    1.439852
C       0.764158   -3.067112    0.546124
C       0.578893   -3.026781   -0.947714
C      -0.378320   -1.963162   -1.501263
C       0.113380   -0.519598   -1.369922
H       1.682045    1.571873   -0.382276
H       0.051987    2.176502   -0.715189
H       0.613257    2.021807    0.954830
H      -1.410546    0.711718    1.551871
H      -1.764326   -0.876005    0.730662
H       0.895560   -0.040992    2.041010
H       0.863526   -2.356028    2.477832
H       1.013549   -4.051399    0.939202
H       1.561097   -2.904388   -1.432162
H       0.226290   -4.014362   -1.271292
H      -0.526238   -2.166620   -2.568793
H      -1.363955   -2.077509   -1.034950
H      -0.494974    0.114986   -2.029510
H       1.136878   -0.464116   -1.769407
