17

C      -0.078893    1.515637   -0.058512
C      -0.040273    0.017174    0.083807
O       1.256136   -0.613660   -0.042605
C       0.599963   -0.656275    1.210873
C       1.276009   -0.126163    2.500068
C       0.904098   -1.464583    3.160855
N      -0.571272   -1.571100    3.075788
C       0.269089   -1.963687    1.908202
H       0.730236    1.982770    0.508675
H       0.024469    1.808214   -1.108727
H      -1.034046    1.906484    0.308401
H      -0.833874   -0.522985   -0.435702
H       2.351046   -0.008399    2.343996
H       0.857352    0.769133    2.965796
H       1.462285   -2.003999    3.915111
H      -0.837816   -2.437094    3.545266
H       0.223126   -2.956066    1.477723
