17

C      -0.110104    1.604931   -0.005671
C      -0.037930    0.081101   -0.052033
C      -1.420238   -0.570518    0.130316
O      -1.956662   -0.269885    1.398695
C       0.875584   -0.534964   -1.141391
O       1.763597   -1.073031   -0.103000
C       0.964132   -0.561809    0.887902
N       1.012604   -0.672836    2.139453
H       0.885899    2.057090   -0.013972
H      -0.667957    1.983920   -0.869100
H      -0.629811    1.920220    0.901370
H      -2.124121   -0.180757   -0.614324
H      -1.335266   -1.658330   -0.029636
H      -1.287086   -0.514760    2.055355
H       0.449502   -1.345909   -1.737792
H       1.408205    0.173831   -1.779229
H       1.804739   -1.236999    2.450106
