23

C       0.008384    1.544821   -0.042004
C      -0.023938    0.016439   -0.059104
O       0.829771   -0.527131    0.947872
C      -1.449725   -0.540414    0.053417
C      -1.513714   -2.066603   -0.048940
C      -2.924064   -2.630836    0.164713
C      -2.965924   -4.134261    0.043232
C      -4.111538   -4.852079   -0.527511
O      -2.913158   -4.670408   -1.283729
H       1.039419    1.903862   -0.100533
H      -0.555119    1.964097   -0.881893
H      -0.437157    1.932936    0.883108
H       0.416585   -0.338014   -0.999912
H       0.520445   -0.195248    1.798464
H      -1.877959   -0.211847    1.013584
H      -2.073049   -0.084946   -0.727646
H      -1.152832   -2.383906   -1.035336
H      -0.823339   -2.497781    0.685084
H      -3.292794   -2.346666    1.160347
H      -3.618094   -2.199137   -0.567008
H      -2.337978   -4.675534    0.754776
H      -4.322318   -5.875947   -0.220790
H      -4.975329   -4.288021   -0.878456
