17

C       0.062213    1.387718    0.249280
N      -0.028013   -0.061934    0.272809
C      -1.147416   -0.614677   -0.014417
C      -2.424040   -0.002193   -0.382783
N      -3.499761   -0.667759   -0.654519
C      -3.401098   -2.035574   -0.582854
N      -2.333056   -2.709109   -0.269188
N      -1.227758   -2.015551    0.009793
C      -0.041082   -2.780022    0.358899
H       1.081704    1.680077    0.513789
H      -0.153137    1.816073   -0.741529
H      -0.613374    1.871919    0.970877
H      -2.471129    1.082365   -0.430836
H      -4.288621   -2.613630   -0.806184
H      -0.309701   -3.833975    0.320102
H       0.766823   -2.551631   -0.341883
H       0.302833   -2.495948    1.357393
