22

C      -0.037524    1.598040   -0.047959
C       0.083873    0.072949   -0.004875
C       0.626161   -0.440063    1.330805
N       0.743650   -1.884576    1.344058
C      -0.503333   -2.686204    1.459537
C       0.155078   -3.545453    2.554664
O       1.015817   -4.590414    2.064015
C       2.192732   -3.746702    2.175813
C       1.324679   -2.532453    2.541979
H       0.936009    2.078483    0.100973
H      -0.430469    1.937095   -1.011051
H      -0.710540    1.967575    0.733811
H      -0.898883   -0.379182   -0.190991
H       0.742263   -0.282608   -0.805569
H       1.625689   -0.020156    1.503674
H      -0.020349   -0.066081    2.152768
H      -1.352307   -2.105359    1.855865
H      -0.811107   -3.204620    0.546157
H      -0.442116   -3.858118    3.413604
H       2.855877   -4.102572    2.975562
H       2.743078   -3.665522    1.233030
H       1.619024   -1.874938    3.363033
