22

C      -0.360373    1.429309   -0.468669
C      -0.109673   -0.056141   -0.199069
C       0.829105   -0.718456   -1.242307
C       1.522943   -1.891326   -0.511757
C       1.556293   -1.445121    0.937365
N       2.020447   -0.042584    1.108784
C       0.575192   -0.353133    1.134231
C      -0.194577   -0.161029    2.416017
O       0.627015   -0.564661    3.504478
H       0.578418    1.987085   -0.392594
H      -0.768725    1.583203   -1.473019
H      -1.071997    1.860872    0.243841
H      -1.072681   -0.588206   -0.194746
H       0.288470   -1.036742   -2.137939
H       1.580342    0.012011   -1.553452
H       0.931719   -2.812456   -0.587609
H       2.516982   -2.104784   -0.918011
H       1.773213   -2.150609    1.731933
H       2.318599    0.059037    2.077506
H      -0.485441    0.896774    2.520078
H      -1.123480   -0.753344    2.376700
H       0.196784   -0.304203    4.323165
