21

C      -0.163542    1.378996   -0.013649
O      -0.225236   -0.021020   -0.150686
C       0.785895   -0.534816   -0.993379
C       0.671778   -2.045521   -0.994067
C       0.845278   -2.675545    0.375961
C      -0.259664   -2.690189   -1.965100
C       1.244098   -2.842704   -2.176203
C       1.881780   -2.207723   -3.350651
O       2.864383   -2.639916   -3.903336
H       0.793847    1.705475    0.422356
H      -0.290333    1.890554   -0.981049
H      -0.976047    1.678136    0.652585
H       0.676485   -0.120510   -2.007469
H       1.781075   -0.230944   -0.624099
H       0.107441   -2.267255    1.071258
H       0.717841   -3.760853    0.331726
H       1.842937   -2.468595    0.779219
H      -0.807976   -3.576112   -1.665157
H      -0.788631   -2.050968   -2.665488
H       1.694602   -3.795139   -1.916360
H       1.376847   -1.288792   -3.727612
