16

C      -0.098608    1.553016    0.014621
C       1.424119    1.253453    0.008119
C       1.321436    0.149902    1.087847
C       1.838859   -0.962059    0.174711
C       0.797404   -2.099986    0.253977
O      -0.036594   -2.067755    1.427006
C      -0.490283   -1.378773    0.253661
C       0.049382    0.035656    0.190161
N       1.204799   -0.003967   -0.860349
H      -0.491252    2.108436    0.868990
H      -0.525499    1.896552   -0.930926
H       2.243569    1.944375   -0.190197
H       1.351466    0.244059    2.175629
H       2.889087   -1.228477    0.046226
H       0.949408   -3.074358   -0.197575
H      -1.402902   -1.729288   -0.213544
