22

C       0.073938    1.570254   -0.182549
C      -0.020472    0.051856   -0.010956
C      -1.452435   -0.483140   -0.155209
C      -1.526377   -2.000363   -0.043147
C      -1.415929   -2.750602    1.329316
C      -2.876324   -2.309550    1.640833
C      -2.880648   -2.759753    0.149981
C      -2.033396   -3.982752    0.606626
H       1.104291    1.923068   -0.072719
H      -0.280202    1.879171   -1.172548
H      -0.537582    2.091704    0.562412
H       0.626576   -0.441594   -0.748303
H       0.373168   -0.231671    0.973729
H      -2.093415    0.008371    0.585061
H      -1.847117   -0.187690   -1.137888
H      -0.894661   -2.449361   -0.821091
H      -0.567631   -2.752189    2.016427
H      -3.431906   -2.945019    2.336439
H      -3.056873   -1.255593    1.855676
H      -3.731790   -2.768590   -0.533935
H      -1.416560   -4.467295   -0.155830
H      -2.539257   -4.715736    1.240905
