23

C       0.039476    1.597507   -0.078304
C      -0.017101    0.063618   -0.052344
C       0.784062   -0.490393   -1.240793
O       0.629174   -1.871370   -1.482226
C       1.299982   -2.722067   -0.565250
C       0.602341   -2.914849    0.761014
C       0.229883   -1.938415    1.592252
C      -0.463374   -2.241052    2.894935
C       0.479384   -0.467696    1.308613
H       1.067289    1.958248    0.050521
H      -0.335013    1.994230   -1.027709
H      -0.564101    2.029027    0.726213
H      -1.058554   -0.255192   -0.187202
H       0.452265    0.005284   -2.160092
H       1.853409   -0.245110   -1.102544
H       1.385310   -3.686938   -1.074011
H       2.328524   -2.349558   -0.406955
H       0.399367   -3.945372    1.044867
H      -0.581636   -3.315851    3.055035
H       0.097527   -1.827561    3.743584
H      -1.458607   -1.778366    2.929653
H       1.558719   -0.261595    1.387125
H       0.010798    0.126538    2.101348
