12

C       0.431279    1.369585    0.092644
C       0.250404   -0.123340    0.099030
O       0.057041   -0.802738    1.076405
C       0.325025   -0.811698   -1.283498
O       0.515563   -0.191060   -2.303892
C       0.150188   -2.252876   -1.269338
C       0.011710   -3.453473   -1.322211
C      -0.147735   -4.807624   -1.368969
N      -0.283212   -5.960431   -1.410263
H       1.402813    1.627159   -0.341764
H      -0.323441    1.836208   -0.548712
H       0.356123    1.751452    1.110561
