22

C      -0.633731    1.094640    0.139008
N       0.026427   -0.204101    0.210365
C       1.431102   -0.244875   -0.181564
C       1.045910   -0.455992    1.241328
C       1.398345    0.527214    2.342381
C       0.546142    0.311794    3.582515
O      -0.840346    0.418004    3.367626
C       0.999402   -0.659516    4.647987
C       0.996240    0.836703    4.907886
H       0.044637    1.956879    0.234190
H      -1.132776    1.171173   -0.832373
H      -1.384801    1.172366    0.928905
H       1.739976   -1.080006   -0.805596
H       1.909697    0.703542   -0.426878
H       1.022658   -1.489421    1.591006
H       2.454076    0.398056    2.610670
H       1.286408    1.559516    1.995115
H      -1.110585   -0.330896    2.823483
H       0.230491   -1.246090    5.137755
H       1.953471   -1.162572    4.529412
H       1.947016    1.355833    4.963831
H       0.223424    1.225301    5.560530
