21

O      -0.002429    1.400321    0.103528
C      -0.009103   -0.012809    0.001395
C      -1.418826   -0.511953   -0.016899
C      -2.522138    0.239060   -0.044618
C      -3.782288   -0.592639   -0.028479
C      -3.261591   -2.026179   -0.307789
C      -1.760907   -1.969049    0.011199
C      -0.822013   -3.062451   -0.438941
C      -1.138909   -2.911547    1.027137
H       0.909347    1.697950    0.041605
H       0.505799   -0.346431   -0.916773
H       0.537607   -0.473739    0.843473
H      -2.519941    1.321249   -0.036458
H      -4.283271   -0.522223    0.947637
H      -4.518304   -0.266898   -0.772258
H      -3.786090   -2.793365    0.268840
H      -3.399100   -2.265736   -1.368436
H      -1.253931   -3.902917   -0.973530
H       0.173590   -2.793134   -0.776795
H      -0.362287   -2.533097    1.683579
H      -1.790720   -3.645310    1.490256
