11

O       0.256928    0.293385    0.851696
C       0.160904    1.303822    0.210079
C       1.285586    1.843793   -0.575189
N       2.149373    2.291596   -1.199872
C      -1.088518    2.143994    0.136213
O      -2.283645    1.519469    0.561648
C      -1.782888    2.553703    1.391622
C      -1.285988    2.184970    2.698922
N      -0.910329    1.950041    3.765535
H      -1.169671    2.808077   -0.723489
H      -2.344392    3.485973    1.369055
