16

C       0.354534    1.538561   -0.485155
C      -0.005970    0.205681    0.104278
C       0.056216    0.036752    1.610591
C       1.504329   -0.024525    2.068620
O       2.275365    0.907071    2.059494
C       2.030584   -1.379743    2.571031
O       1.337705   -2.346331    2.740146
N      -0.366220   -0.837817   -0.540670
O      -0.416387   -0.624615   -1.922691
H       1.195167    1.974797    0.060830
H       0.600069    1.447553   -1.542707
H      -0.491875    2.230208   -0.387900
H      -0.413779    0.898386    2.098121
H      -0.454719   -0.882122    1.898983
H       3.118932   -1.354850    2.788653
H      -0.679018   -1.491573   -2.249785
