20

C      -0.267304    1.260862   -0.050569
O       0.217731   -0.060207    0.076158
C       0.737880   -0.597269   -1.111784
C       1.250671   -2.000420   -0.865246
N       0.154419   -2.999235   -0.833599
C       0.966776   -2.828084   -2.061495
C       0.262376   -1.969564   -3.096922
C      -0.298272   -0.774365   -2.280881
O      -1.601830   -1.006103   -1.795786
H       0.500857    1.935512   -0.461998
H      -1.160478    1.301714   -0.685039
H      -0.527813    1.602013    0.954514
H       1.576320    0.025127   -1.476266
H       2.118447   -2.156137   -0.233905
H       0.459818   -3.823310   -0.323801
H       1.625914   -3.635010   -2.364610
H       0.988752   -1.629587   -3.844882
H      -0.548466   -2.485927   -3.618393
H      -0.361267    0.126833   -2.896238
H      -1.517471   -1.760200   -1.191608
