18

C       0.132881    0.841504    1.036892
N      -0.105455    0.153764   -0.230988
C       1.086659   -0.500665   -0.768323
C      -1.270536   -0.581987   -0.301012
C      -2.433107   -0.461326   -0.975528
N      -3.303458   -1.502014   -0.661813
C      -2.624679   -2.217086    0.184775
N      -3.000373   -3.410989    0.752198
O      -1.395115   -1.763134    0.480137
H       0.924837    1.585681    0.901025
H      -0.779274    1.357778    1.344490
H       0.439894    0.159579    1.846944
H       1.474415   -1.296875   -0.112192
H       0.850668   -0.937245   -1.741306
H       1.877552    0.244770   -0.903636
H      -2.705758    0.317315   -1.670340
H      -3.996993   -3.564922    0.704745
H      -2.609388   -3.586128    1.666288
