20

C      -0.396877    1.611517   -0.185846
C       0.066828    0.156535   -0.060491
C      -1.117459   -0.802316    0.166435
C       0.877316   -0.288605   -1.245074
N       1.022214    0.429192   -2.347731
N       1.807744   -0.373526   -3.112343
C       2.102982   -1.518893   -2.458331
C       2.948767   -2.613422   -3.016688
N       1.527095   -1.495751   -1.270697
H       0.449260    2.291455   -0.314936
H      -1.054934    1.738763   -1.050624
H      -0.948314    1.909784    0.711235
H       0.725810    0.071273    0.814206
H      -1.828152   -0.742342   -0.665271
H      -0.770775   -1.835586    0.245303
H      -1.650361   -0.541963    1.086664
H       2.088846   -0.069163   -4.029634
H       3.955819   -2.259990   -3.262795
H       3.031549   -3.406097   -2.272657
H       2.511923   -3.035860   -3.927997
