21

C      -0.004159    1.195809    0.213321
N      -0.060395   -0.226253   -0.062932
C      -1.251969   -0.909568   -0.012348
O      -2.289160   -0.429980    0.407587
N      -1.154480   -2.197115   -0.558645
C      -0.352546   -3.299491   -0.018329
C       0.456707   -3.155756    1.249748
C      -1.857169   -3.354102   -0.030092
C      -2.705799   -3.299942    1.220200
H       0.926509    1.446478    0.731471
H      -0.073704    1.804666   -0.697892
H      -0.851447    1.442286    0.853747
H       0.662681   -0.626282   -0.638448
H       0.160287   -3.866856   -0.795720
H      -0.073852   -2.599455    2.024468
H       0.703116   -4.147103    1.644880
H       1.398866   -2.632271    1.056560
H      -2.301924   -3.959259   -0.820512
H      -2.245422   -2.721784    2.021773
H      -3.668443   -2.832444    1.000941
H      -2.886857   -4.318347    1.581157
