9

O      -0.081211    1.281622    0.042207
C       0.057313   -0.034247    0.000356
N       1.149220   -0.708649   -0.064281
N       0.671100   -2.020296   -0.079217
C      -0.683820   -2.104732   -0.023974
O      -1.442489   -3.025709   -0.017616
O      -1.083007   -0.740144    0.029639
H       0.802861    1.672138    0.015197
H       1.308335   -2.794805   -0.127636
