21

C       0.384603    1.249365   -0.439696
C      -0.169101   -0.025365    0.134988
C      -1.670746   -0.215565    0.295022
C      -1.842380   -1.475873    1.187164
C      -2.166545   -2.720272    0.360632
O      -2.368162   -3.802672    1.262536
C      -0.501484   -1.621756    1.960837
C       0.512218   -0.875827    1.121934
O       0.491591   -1.242128   -0.270630
H       1.477064    1.223075   -0.452970
H       0.036358    1.395305   -1.468375
H       0.061079    2.115145    0.148051
H      -2.092184    0.671891    0.781689
H      -2.173891   -0.318007   -0.673710
H      -2.669885   -1.340912    1.890019
H      -3.076052   -2.533396   -0.233812
H      -1.341474   -2.922280   -0.334092
H      -2.396845   -4.616105    0.751370
H      -0.558756   -1.152354    2.950203
H      -0.245510   -2.673465    2.115426
H       1.497003   -0.635874    1.518108
