20

C      -0.257739    0.844207    0.123019
O       0.826464   -0.055751    0.273645
C       1.225385   -0.718524   -0.900612
C       0.345935   -1.942688   -1.236904
O      -0.949216   -1.560592   -1.630274
C       0.997350   -2.778107   -2.325974
N       0.425736   -2.875506   -3.453964
O       2.163328   -3.314452   -1.909189
C       2.897426   -4.102962   -2.839059
H      -0.057486    1.576116   -0.674923
H      -1.195802    0.329974   -0.107734
H      -0.352882    1.377549    1.072682
H       1.218836   -0.036632   -1.766569
H       2.251157   -1.059546   -0.727367
H       0.287940   -2.556879   -0.326143
H      -1.026277   -1.829921   -2.560584
H       0.915687   -3.446359   -4.137121
H       2.319609   -4.978252   -3.157829
H       3.183718   -3.514720   -3.718568
H       3.794235   -4.432117   -2.314161
