20

C       0.039972    1.521768    0.245404
C      -0.117565    0.030805   -0.080306
C       0.678084   -0.443341   -1.280909
C       0.936719   -1.963497   -1.458623
O       2.372342   -1.757932   -1.530408
C       2.220379   -0.338411   -1.400332
C       2.053989    0.478320   -2.710123
N       1.282354   -0.359065   -3.657190
C       0.566571    0.379229   -2.596750
H       1.086419    1.776074    0.444448
H      -0.304399    2.158421   -0.575374
H      -0.540346    1.786185    1.134291
H       0.183524   -0.561543    0.792684
H      -1.180225   -0.195271   -0.248843
H       0.670315   -2.566481   -0.581283
H       0.544664   -2.420565   -2.370424
H       2.868161    0.108962   -0.640661
H       2.683202    1.282316   -3.073523
H       1.189416    0.181262   -4.516759
H      -0.203346    1.099797   -2.846406
