14

N      -0.054053    1.331785    0.087632
C      -0.052072    0.062837    0.000425
N       1.049050   -0.819706   -0.141629
C       0.702609   -2.249794   -0.020904
C      -0.777126   -2.117125    0.006953
C      -1.207956   -0.842056    0.010339
N      -2.595093   -0.820184    0.005894
C      -2.903022   -2.075804   -0.002678
O      -1.836450   -2.952701   -0.007744
H       0.894891    1.708741    0.055303
H       1.934303   -0.518937    0.235318
H       1.075249   -2.829426   -0.875670
H       1.111607   -2.702737    0.893548
H      -3.881174   -2.529842   -0.002743
