19

O       0.004803   -0.039750    0.169351
C      -0.013427    1.162693    0.047385
C      -1.309036    1.963696   -0.014670
C      -1.326214    2.936568   -1.213577
C      -0.066819    3.779931   -1.232067
C      -0.092419    5.165492   -1.712341
O      -0.069570    4.884946   -0.308789
C       1.215387    2.971614   -1.247947
C       1.257455    1.999086   -0.049375
H      -2.151833    1.269812   -0.039304
H      -1.378998    2.554699    0.908425
H      -1.391776    2.368119   -2.149949
H      -2.207094    3.582544   -1.160879
H       0.814942    5.616167   -2.113107
H      -1.022363    5.590832   -2.088261
H       1.271255    2.404840   -2.185960
H       2.079226    3.641649   -1.218843
H       1.336028    2.592138    0.871710
H       2.118086    1.328691   -0.097044
