22

C      -0.016242    1.598530   -0.095916
C      -0.030986    0.068735   -0.144639
C      -1.411222   -0.531359    0.166975
C      -1.424607   -2.035049    0.135660
C      -1.582967   -2.827639   -1.135377
C      -2.586671   -3.022533   -0.029839
C      -1.998908   -3.937862    1.048869
C      -0.804626   -2.941409    1.215063
H       0.978517    1.996974   -0.319139
H      -0.716326    2.024780   -0.823432
H      -0.307384    1.966688    0.894388
H       0.291638   -0.275261   -1.135301
H       0.703535   -0.328142    0.568108
H      -1.740633   -0.179960    1.155583
H      -2.145200   -0.145704   -0.553800
H      -1.939615   -2.260664   -1.990386
H      -0.886233   -3.624296   -1.391337
H      -3.640607   -2.815908   -0.179058
H      -2.614377   -3.997606    1.949349
H      -1.752147   -4.956551    0.730139
H       0.198414   -3.328287    1.005362
H      -0.794423   -2.473294    2.203330
