18

O      -0.055902   -0.007398   -0.207763
C      -0.023499    1.199545   -0.038926
N      -1.159715    1.942324    0.190452
C      -1.183530    3.379611    0.088766
C      -1.748781    4.016045   -1.165634
C      -2.516053    4.061094    0.141065
C       0.026837    4.003817    0.757397
C       1.280371    3.253731    0.388011
C       1.242919    1.976436    0.003080
H      -2.023756    1.429361    0.090071
H      -1.298597    4.933004   -1.531069
H      -2.114443    3.352621   -1.941545
H      -3.401388    3.439419    0.232732
H      -2.586470    5.005036    0.671305
H       0.107496    5.056650    0.468543
H      -0.090580    3.990957    1.852049
H       2.229445    3.776090    0.477182
H       2.133583    1.409525   -0.241053
