16

C      -0.443135    1.409726    0.205490
C       0.038535   -0.003435   -0.079413
C       1.009642   -0.198150   -1.289180
C       2.045134   -0.690103   -0.284771
N       3.223024   -1.118819   -0.375254
N       1.141960   -0.485011    0.788818
C       1.249734   -0.749338    2.123484
O       2.250748   -1.185097    2.650227
H       0.395229    2.113095    0.212233
H      -1.153784    1.724561   -0.565344
H      -0.951309    1.471287    1.173019
H      -0.800876   -0.706543   -0.087846
H       0.702738   -0.942264   -2.025643
H       1.284694    0.726570   -1.801010
H       3.585240   -1.363293    0.548142
H       0.318133   -0.521091    2.677917
