23

C      -0.793683    1.172609    0.029023
C       0.135333   -0.034307   -0.068497
C       1.305403    0.108527   -1.067614
C       2.364129   -0.822292   -0.512172
C       3.558598   -1.227573   -1.316427
C       2.074618   -1.161485    0.744817
C       0.803070   -0.512050    1.255487
C       1.122768    0.604907    2.259484
O      -0.106139   -1.443858    1.856099
H      -0.255909    2.082544    0.316327
H      -1.274194    1.367174   -0.935738
H      -1.586054    0.998381    0.763971
H      -0.458180   -0.899779   -0.384315
H       1.014270   -0.142731   -2.095169
H       1.680880    1.142967   -1.102973
H       4.139395   -0.351259   -1.632418
H       4.221888   -1.889317   -0.752800
H       3.257161   -1.745918   -2.235762
H       2.688551   -1.792813    1.381341
H       1.737523    1.388632    1.806321
H       0.204294    1.056492    2.645661
H       1.687893    0.200157    3.108430
H       0.229272   -1.664046    2.731580
