22

C      -0.717235    1.374537   -1.419632
C      -0.571068   -0.006708   -0.776799
C      -1.757873   -0.405262    0.101883
C      -1.647925   -1.823237    0.678751
C      -1.761936   -2.937970   -0.366958
O      -1.814059    0.552459    1.181289
C      -3.078798    1.046645    1.513471
C      -3.948643    0.085683    2.229149
N      -4.637018   -0.657378    2.785438
H       0.160835    1.621363   -2.023633
H      -1.593038    1.417059   -2.077453
H      -0.829089    2.148435   -0.655578
H      -0.443879   -0.766354   -1.555356
H       0.333074   -0.037708   -0.156081
H      -2.685733   -0.323500   -0.487520
H      -0.695734   -1.902696    1.217400
H      -2.437515   -1.951926    1.425043
H      -2.696564   -2.857587   -0.933576
H      -0.934867   -2.922508   -1.083136
H      -1.755955   -3.918310    0.118106
H      -2.921572    1.908567    2.170641
H      -3.630931    1.400354    0.629147
