16

C      -0.046698    1.525379    0.072898
C      -0.018091    0.036633   -0.040724
C      -0.043923   -0.768852   -1.152695
N      -0.161195   -0.400684   -2.497199
C      -0.014298   -2.103182   -0.641403
N       0.032127   -2.139551    0.671546
N       0.029636   -0.832322    1.050198
C       0.079264   -0.475566    2.399528
O       0.126220   -1.245213    3.317820
H       0.857326    1.932751    0.540564
H      -0.127461    1.967559   -0.923657
H      -0.907800    1.883624    0.648558
H       0.255508    0.495528   -2.711936
H       0.207668   -1.099533   -3.128149
H      -0.026565   -3.025200   -1.207341
H       0.070055    0.622183    2.515923
