19

C      -0.002128    1.570723   -0.038014
C       0.060588    0.048913   -0.001949
C       0.723519   -0.599850   -1.241199
C       1.275406   -1.941670   -0.690262
C       2.448367   -2.435607   -1.407232
N       3.381258   -2.819467   -1.971832
C       1.535505   -1.642248    0.791955
C       2.242168   -0.378459    1.114050
N       0.774320   -0.454243    1.195437
H       0.999855    2.005568   -0.116166
H      -0.586366    1.912283   -0.897923
H      -0.470885    1.955883    0.871391
H      -0.960178   -0.343151    0.091522
H       0.020844   -0.753347   -2.062427
H       1.538830    0.017958   -1.626451
H       0.498283   -2.712560   -0.752584
H       1.556515   -2.484764    1.475848
H       2.739277   -0.272961    2.072947
H       2.710834    0.174984    0.304551
