15

N       0.173965    1.420634    0.126269
C      -0.012032    0.025031    0.032864
C      -1.108151   -0.792040    0.029632
C      -0.643464   -2.158072   -0.023634
C      -1.363477   -3.368465   -0.051904
C      -1.932980   -4.433260   -0.079144
C       0.739430   -2.089303   -0.059592
O       1.674830   -3.057092   -0.120834
N       1.119127   -0.787500   -0.023496
H       0.175971    1.873375   -0.783811
H      -0.562453    1.846314    0.676070
H      -2.139781   -0.478081    0.050221
H      -2.452274   -5.358417   -0.102645
H       1.205566   -3.901405   -0.146574
H       2.065911   -0.454073    0.041567
