13

N       0.481973   -0.802338    0.735256
C       0.225710    0.255090    0.347693
C      -0.127237    1.602690   -0.188306
O      -0.909207    2.318715    0.741437
C      -0.059532    3.259512    1.368030
C       1.220653    2.758904    2.003573
C       1.204994    3.277610    0.580866
O       1.037147    2.346571   -0.470161
H      -0.700035    1.463192   -1.111678
H      -0.605053    4.121687    1.727095
H       1.672227    3.411280    2.743996
H       1.352386    1.699639    2.190840
H       1.750046    4.155395    0.261052
