10

C      -0.023200    1.479882    0.016130
C       0.010331   -0.008348   -0.018699
N      -0.136612   -0.733077   -1.124264
N      -0.031738   -1.964123   -0.639255
N       0.166072   -2.030825    0.667783
N       0.195579   -0.791350    1.080013
H       0.917105    1.877351    0.408992
H      -0.183767    1.874664   -0.987963
H      -0.826378    1.831960    0.669926
H      -0.096998   -2.788196   -1.217612
