21

C      -0.061303    1.548216    0.004976
C       0.048080    0.049604    0.100773
C       0.905807   -0.708240   -0.963520
C       1.807259   -1.287647    0.176278
C       0.798226   -0.767111    1.200995
C       0.861963   -0.334942    2.670122
C      -0.631954   -0.775862    2.834428
C      -0.602002   -1.398221    1.408477
O      -1.221652   -0.597407    0.380588
H       0.922184    2.002800   -0.152700
H      -0.701203    1.824041   -0.841235
H      -0.502296    1.971835    0.912462
H       0.314719   -1.455024   -1.496910
H       1.419488   -0.074692   -1.690810
H       1.998943   -2.364504    0.169367
H       2.769827   -0.769809    0.240273
H       1.544169   -0.952545    3.262535
H       1.099377    0.715500    2.864015
H      -0.816098   -1.484853    3.645038
H      -1.350072    0.043316    2.909240
H      -0.837056   -2.462559    1.313801
