16

O      -0.042849    1.499154   -0.192363
C       0.052713    0.102358   -0.109287
C      -1.325988   -0.568077    0.032052
C      -1.325159   -2.100335    0.087219
C      -2.311072   -2.447704    1.189300
O      -2.784906   -3.494256    1.492470
O      -2.615112   -1.285078    1.895202
C      -2.001095   -0.187933    1.334273
N      -1.999272    0.961687    1.851521
H      -0.560750    1.785441    0.577196
H       0.527510   -0.246710   -1.032867
H       0.690004   -0.224927    0.731029
H      -1.958286   -0.208199   -0.787632
H      -1.613297   -2.596467   -0.840247
H      -0.346258   -2.499359    0.380533
H      -2.501285    0.988010    2.739079
