17

C      -0.056516    1.392401   -0.079457
C       1.239255    0.696894    0.062052
N      -0.070657   -0.071173    0.079009
C       0.292987   -0.617995   -1.277820
C       1.670354    0.090081   -1.269274
C       2.188340    0.967560   -2.433148
N       3.529781    0.453219   -2.754164
C       3.706905   -0.525548   -1.971472
O       2.740802   -0.869675   -1.084357
H      -0.436574    1.919562    0.790063
H      -0.346612    1.828052   -1.034174
H       1.876496    0.779664    0.936206
H       0.398652   -1.702937   -1.234902
H      -0.407603   -0.340178   -2.073226
H       1.544843    0.899397   -3.317721
H       2.244322    2.024723   -2.151753
H       4.590859   -1.152276   -1.932016
