23

C      -0.098598    1.495780   -0.096655
C       0.159244   -0.014696   -0.032906
C       0.793277   -0.506261    1.282149
C       2.140572    0.156431    1.553063
C      -0.223141   -0.510900    2.470215
C      -0.466814   -2.022360    2.244614
C       0.828637   -2.092682    1.390575
C       0.804180   -2.908847    0.129263
O       1.731970   -3.555224   -0.290734
H       0.832000    2.070057   -0.093077
H      -0.638169    1.752288   -1.013314
H      -0.704924    1.837737    0.748957
H      -0.792040   -0.537396   -0.192096
H       0.808110   -0.303563   -0.870453
H       2.035738    1.237962    1.687201
H       2.596277   -0.244566    2.464007
H       2.839718   -0.013865    0.726031
H       0.270162   -0.310128    3.425277
H      -1.087852    0.152381    2.385504
H      -0.503327   -2.667469    3.124604
H      -1.360263   -2.216755    1.642421
H       1.698242   -2.403313    1.975103
H      -0.164851   -2.886216   -0.422917
