23

C      -1.470402   -0.422006   -0.749979
C      -0.152560   -0.127922   -0.015669
C      -0.148847    1.297673    0.545151
O      -0.055449   -0.975661    1.133407
C       1.018573   -0.290215   -0.994694
C       2.491820   -0.325193   -0.712520
C       2.873799   -1.217991    0.481860
C       2.215669   -2.435618   -0.237691
C       1.791628   -1.520220   -1.397949
H      -1.628962    0.268400   -1.584423
H      -1.464516   -1.438974   -1.160316
H      -2.313876   -0.330362   -0.059317
H      -0.998547    1.441772    1.218677
H       0.772099    1.477770    1.106131
H      -0.211722    2.034833   -0.260722
H      -0.245309   -1.875677    0.852067
H       0.829495    0.319873   -1.879487
H       3.158096    0.404455   -1.159497
H       3.955543   -1.336372    0.578217
H       2.454644   -0.937972    1.448154
H       2.968563   -3.155433   -0.569060
H       1.440770   -2.991829    0.296991
H       1.837333   -1.817340   -2.440339
