18

C      -0.228585    1.674455    0.788423
C      -0.097268    0.326106    0.264145
C      -0.006364   -0.792100   -0.182040
C       0.100067   -2.140893   -0.705479
O      -0.807353   -2.666398   -1.317663
C       1.426959   -2.796412   -0.455153
N       1.482171   -4.267502   -0.520761
C       2.180717   -3.511203   -1.551520
C       1.672761   -3.632917   -2.965971
H       0.608834    1.936119    1.443395
H      -0.260416    2.404485   -0.027886
H      -1.155877    1.780248    1.361766
H       2.037687   -2.288740    0.287537
H       2.126328   -4.611086    0.186613
H       3.264014   -3.427897   -1.458842
H       0.583485   -3.683223   -2.977916
H       1.999407   -2.779238   -3.569210
H       2.070681   -4.543889   -3.425816
