16

O       0.000246    1.387772    0.070258
C       0.056705   -0.026240   -0.143592
C      -1.336606   -0.595707   -0.037544
O      -2.261057    0.072100   -0.849125
C      -1.700307   -2.053204    0.103816
C      -0.743272   -2.762432    1.051440
O      -0.919854   -1.735652    2.069821
C      -1.915661   -1.094135    1.265500
H      -0.141647    1.528552    1.012889
H       0.442143   -0.155884   -1.159718
H       0.739665   -0.510811    0.561367
H      -2.035012    1.008637   -0.760771
H      -2.413955   -2.514073   -0.565229
H      -1.128957   -3.723022    1.411037
H       0.304053   -2.877910    0.749836
H      -2.809937   -0.706444    1.739770
