20

C       0.234405    1.550097   -0.006953
C      -0.028316    0.055270   -0.073744
O       0.648033   -0.470801   -1.197547
C       0.462039   -1.860408   -1.355834
C       1.236585   -2.296499   -2.569352
N       2.611682   -2.748473   -2.352931
C       1.595422   -3.730148   -2.805498
C       1.230548   -4.785226   -1.898730
C       0.901242   -5.684117   -1.171332
H       1.306315    1.746306    0.085502
H      -0.127242    2.044339   -0.913241
H      -0.275629    1.989277    0.855645
H       0.321956   -0.441439    0.846759
H      -1.110930   -0.145003   -0.153412
H       0.816933   -2.415003   -0.475039
H      -0.608504   -2.095058   -1.490615
H       1.027618   -1.706559   -3.460135
H       3.204326   -2.489137   -3.137422
H       1.630726   -4.036128   -3.849231
H       0.621212   -6.474635   -0.520047
