19

O      -0.007617    0.107709   -0.626097
C      -0.016455    1.224345   -0.160214
C      -1.360976    1.923141    0.086869
N      -1.405088    2.788117    1.258748
C      -0.794645    4.068221    1.068507
C      -0.031042    4.673803    2.220089
C       0.717301    4.088713    1.048077
N       1.367121    2.825690    1.221288
C       1.314822    1.959406    0.050711
H      -1.604835    2.455721   -0.855504
H      -2.096364    1.122317    0.193896
H      -2.356776    2.883747    1.590363
H      -1.280490    4.762448    0.376291
H      -0.043981    5.750764    2.342842
H      -0.010804    4.090735    3.132654
H       1.165281    4.795599    0.343246
H       2.324480    2.947193    1.527109
H       2.074261    1.178840    0.137542
H       1.518614    2.498051   -0.897710
