19

C      -0.135105    1.529077   -0.000547
C       0.050541    0.011808    0.003576
O      -1.213753   -0.633881    0.017397
C       1.007457   -0.544188   -1.115845
C       2.019509   -1.246460   -0.198247
O       1.151827   -1.909828    0.784730
C       0.845484   -0.536828    1.204822
C       2.332907   -0.196059    0.899204
O       3.239861   -0.612115    1.878417
H       0.815344    2.068631    0.027580
H      -0.660426    1.842975   -0.910628
H      -0.738286    1.838117    0.858526
H      -1.709350   -0.332168   -0.751403
H       0.481849   -1.256694   -1.754906
H       1.458759    0.237297   -1.734372
H       2.783409   -1.896304   -0.626429
H       0.402128   -0.458333    2.197427
H       2.612281    0.817843    0.605037
H       2.972998   -1.509034    2.121599
