21

C      -0.082716    1.346000   -0.560987
C      -0.017373   -0.138689   -0.184562
C      -1.390831   -0.717225    0.094905
O      -2.265139   -0.720469   -1.081705
C      -2.669467   -2.085388   -0.824629
C      -1.855456   -3.055582   -1.726446
O      -1.452500   -2.511958   -2.950146
C      -0.791725   -3.189109   -0.578268
C      -1.623153   -2.228842    0.314926
H       0.912355    1.739931   -0.786483
H      -0.714323    1.491849   -1.442104
H      -0.504215    1.943875    0.254475
H       0.462279   -0.703764   -0.991020
H       0.600325   -0.277838    0.712516
H      -1.878771   -0.129765    0.886920
H      -3.753525   -2.190278   -0.736369
H      -2.370982   -3.999450   -1.928884
H      -1.435431   -1.553708   -2.805676
H      -0.729362   -4.201125   -0.170576
H       0.216301   -2.864608   -0.844200
H      -1.858190   -2.548777    1.328660
