17

C      -0.049696    1.533021    0.002732
C       0.056250    0.031091    0.010300
C       1.012166   -0.781274   -0.911098
C       0.646059   -1.924778    0.087119
C       0.645786   -0.808077    1.192417
C      -0.872176   -2.029576   -0.126568
O      -1.602190   -2.987517   -0.110555
N      -1.214496   -0.684155   -0.289494
H       0.928409    1.985551    0.189230
H      -0.417844    1.892805   -0.963351
H      -0.735503    1.886491    0.781385
H       0.719445   -0.891663   -1.957377
H       2.055122   -0.468483   -0.821957
H       1.193595   -2.859563    0.171500
H       1.653965   -0.503696    1.484992
H       0.014955   -0.955334    2.073531
H      -2.091214   -0.358325    0.094243
