19

C      -0.115157    1.618575    0.195599
C       0.065026    0.093827    0.135887
C      -1.307839   -0.608464    0.119949
C      -1.220673   -2.100695    0.364120
O      -1.984140   -2.714443    1.067355
N       0.852915   -0.453845   -0.978564
C       0.963997    0.253875   -2.248242
C       2.137102    0.122138   -1.336408
H       0.839673    2.150051    0.143039
H      -0.758951    1.982989   -0.611394
H      -0.588890    1.893304    1.142639
H       0.600969   -0.215059    1.043733
H      -1.989453   -0.178231    0.859182
H      -1.756688   -0.457268   -0.872924
H      -0.384174   -2.604152   -0.164001
H       0.882086   -0.363795   -3.138441
H       0.528287    1.245249   -2.344567
H       2.471777    1.026128   -0.831242
H       2.927895   -0.592751   -1.548286
