17

C      -0.351074    1.405928   -0.044876
C       0.078445   -0.068483    0.006445
C       0.956668   -0.469468   -1.160778
C       2.191119   -0.823851   -0.799386
C       2.366860   -0.798312    0.695829
C       0.965679   -0.395934    1.217776
O       0.765790   -1.760040    1.727708
C       2.034538   -2.145242    1.366828
O       2.561501   -3.190651    1.562946
H       0.520208    2.069312   -0.033013
H      -0.914731    1.615673   -0.958878
H      -0.987210    1.659070    0.809536
H      -0.820310   -0.697353    0.056345
H       0.594342   -0.447922   -2.183081
H       2.981427   -1.141408   -1.468494
H       3.265477   -0.302203    1.066357
H       0.899882    0.315443    2.042233
