18

C      -0.059316    1.577598   -0.049566
C       0.085833    0.072948    0.046972
N       1.280891   -0.610493   -0.679063
C       2.137141   -0.163756    0.516121
C       0.829956   -0.645684    1.188619
O       0.434112   -0.629319    2.509963
C       0.948733   -1.852084    0.190036
C      -0.196347   -2.654255   -0.175732
C      -1.126390   -3.366252   -0.449332
H      -0.244674    1.863907   -1.089885
H      -0.924914    1.892060    0.542426
H       0.805613    2.139935    0.307490
H      -0.852090   -0.403611   -0.247533
H       3.038984   -0.767915    0.648852
H       2.374144    0.898032    0.520023
H       1.065539   -1.133296    3.035628
H       1.833866   -2.482345    0.319961
H      -1.952790   -3.985468   -0.697507
