15

C       0.025311   -1.238290   -0.120918
C       0.018823   -0.040288   -0.028349
C      -0.007858    1.402319    0.081847
C      -0.218568    2.066735    1.502616
C       1.105211    2.811875    1.321545
N       2.144553    1.783448    1.172623
C       1.338485    2.166777   -0.013817
C       1.936540    2.695419   -1.192708
N       2.408156    3.124663   -2.159158
H       0.041731   -2.297006   -0.203130
H      -0.718076    1.829461   -0.631249
H      -1.094007    2.716677    1.520405
H      -0.239813    1.375906    2.345755
H       1.350587    3.820597    1.627902
H       3.047835    2.250457    1.090902
