19

O       0.249231    0.771786   -0.895348
C      -0.024004   -0.017191    0.279704
C      -1.434520   -0.565737    0.306122
C      -1.980112   -1.205059   -0.966435
O      -1.106455   -1.361847   -2.050273
C      -1.669108   -2.075063    0.214780
O      -0.558052   -2.910122    0.057652
C      -2.739590   -2.740220    1.043030
O      -3.125013   -3.981432    0.488792
H      -0.335805    1.536782   -0.877225
H       0.697315   -0.836374    0.246434
H       0.179136    0.569685    1.183548
H      -2.155639   -0.004279    0.894582
H      -3.016886   -1.024970   -1.243439
H      -0.538423   -0.573179   -2.067150
H      -0.305642   -2.822107   -0.876721
H      -2.373648   -2.857836    2.076766
H      -3.632703   -2.107291    1.078720
H      -2.300134   -4.444316    0.297386
