18

C      -0.145245    1.559638   -0.010530
C       0.030747    0.046791    0.009415
C       1.212710   -0.638981   -0.773624
C       2.161694   -0.164116    0.377703
C       0.880000   -0.648694    1.154104
C       0.621829   -0.654639    2.632962
C       0.935428   -1.823028    0.162296
O       0.824906   -3.010979    0.144602
H       0.782734    2.118339    0.128165
H      -0.579257    1.873489   -0.965621
H      -0.838704    1.867445    0.779682
H      -0.941099   -0.429611   -0.159332
H       1.401277   -0.626208   -1.844683
H       3.079625   -0.735060    0.533117
H       2.358619    0.906346    0.416484
H       0.608647    0.361055    3.042649
H      -0.343024   -1.121900    2.856028
H       1.395439   -1.220952    3.161580
