22

C       0.001063    1.545993    0.643110
C       0.138489    0.076334    0.301280
C       0.299997   -0.429983   -1.098990
C       0.342752    0.479143   -2.316488
C       0.968942   -0.204704   -3.512251
C       1.725146    0.530374   -4.532801
O       2.397348   -0.266146   -3.554773
N       1.390634   -0.549309   -0.131051
C       2.610163    0.233799   -0.274817
H       0.482773    2.211749   -0.074997
H      -1.059540    1.817183    0.683487
H       0.429441    1.754439    1.629887
H      -0.425308   -0.559520    0.985587
H      -0.159230   -1.394196   -1.328619
H      -0.685875    0.760781   -2.582332
H       0.886020    1.405952   -2.118329
H       0.485518   -1.135561   -3.816779
H       1.771747    0.155387   -5.554283
H       1.857456    1.607019   -4.429362
H       2.470093    1.299262   -0.507493
H       3.173020    0.171132    0.662473
H       3.213179   -0.200733   -1.075559
