19

O       0.033297    1.495391    0.033425
C       0.121396    0.079309   -0.033864
C      -1.245330   -0.649155    0.072513
C      -1.164091   -1.861754   -0.889998
C      -2.484636   -2.163960   -1.631763
C      -2.397716   -3.444714   -2.428386
O      -2.518664   -3.528969   -3.623506
C      -0.012104   -1.485639   -1.799630
C       0.683943   -0.451282   -1.333132
H      -0.450116    1.790795   -0.746577
H       0.775794   -0.183979    0.807017
H      -1.501328   -0.931191    1.096565
H      -2.019773    0.045016   -0.275658
H      -0.890792   -2.763332   -0.320261
H      -3.284644   -2.287153   -0.888085
H      -2.755392   -1.343687   -2.303125
H      -2.188434   -4.351053   -1.810748
H       0.211428   -2.039521   -2.705649
H       1.571424   -0.021018   -1.783993
