18

C      -0.160873    1.364643    0.050468
O       0.193624   -0.007699   -0.055824
C       0.728867   -0.569450    1.105859
C       2.024194    0.061309    1.419002
N       3.027417    0.594194    1.634217
C      -0.216816   -0.895094    2.322705
C      -0.884596   -1.958888    1.398848
C       0.650100   -2.123978    1.174942
C       0.808963   -1.995881    2.717820
H       0.709805    1.988425    0.289757
H      -0.555224    1.658128   -0.923784
H      -0.934145    1.521844    0.814478
H      -0.700128   -0.172810    2.980244
H      -1.375091   -2.785631    1.915986
H      -1.469084   -1.594493    0.556665
H       1.162825   -2.809534    0.501127
H       1.777719   -1.672298    3.102271
H       0.402767   -2.824688    3.299087
