19

C      -0.166337    1.560564    0.053368
C       0.039842    0.048428   -0.025784
O       0.715511   -0.346429   -1.226956
C       2.129435   -0.205100   -1.192430
C       2.685387   -0.777467    0.108861
C       2.123278   -2.182982    0.410102
O       0.911401   -1.913310    1.120079
C       0.797034   -0.503898    1.195635
O       2.123478   -0.010776    1.185970
H       0.784000    2.084223    0.184216
H      -0.647378    1.918701   -0.860287
H      -0.809808    1.814419    0.902656
H      -0.929903   -0.457679   -0.079148
H       2.509878   -0.748079   -2.064225
H       2.435757    0.847912   -1.279865
H       3.773769   -0.707602    0.161173
H       1.908777   -2.751560   -0.500145
H       2.796403   -2.761529    1.052417
H       0.317696   -0.228364    2.139578
