18

C      -0.040632    1.534292    0.046652
C      -0.057879    0.024644    0.051581
C       0.299596   -0.739382   -1.284723
C      -0.836458   -1.714024   -0.997728
C      -0.827583   -2.092971    0.468393
O       0.367226   -1.951353    1.226800
C       0.771393   -0.640479    1.129925
N       1.712740   -0.118107    1.787092
C      -1.397737   -0.779403    0.084086
H       0.987127    1.898171   -0.037490
H      -0.625595    1.930040   -0.789167
H      -0.453625    1.933573    0.978073
H       0.069975   -0.104745   -2.143996
H       1.315189   -1.135577   -1.384473
H      -1.369211   -2.315311   -1.725454
H      -1.435812   -2.919922    0.808974
H       2.136703   -0.799790    2.418590
H      -2.393389   -0.407669    0.287542
