12

O      -0.279358   -0.017332    0.002630
C      -0.083983    1.167712    0.008550
N       1.152331    1.794389    0.001570
C       2.410217    1.221383   -0.012810
C       3.642639    1.814154   -0.018601
C       4.517255    0.700472   -0.033879
N       3.884284   -0.445956   -0.037206
O       2.518268   -0.107349   -0.023509
H      -0.889239    1.927926    0.019879
H       1.143223    2.803063    0.008105
H       3.880172    2.864064   -0.012793
H       5.598299    0.696104   -0.042737
