13

C      -0.076936    1.506667   -0.142131
C       0.097029    0.003901    0.020901
O       0.751784   -0.316593    1.255256
C       2.047290   -0.696774    1.213612
O       2.676375   -0.950402    2.193125
C      -1.229435   -0.755100    0.020966
O      -2.191309   -0.409812   -0.609524
H       0.889942    1.997544   -0.276988
H      -0.707287    1.702959   -1.012168
H      -0.563948    1.926888    0.741476
H       0.686688   -0.405378   -0.816327
H       2.442643   -0.747802    0.179366
H      -1.220019   -1.670805    0.650508
