12

O      -0.012368   -0.086521    0.533933
C       0.510097    0.513835   -0.368533
C       1.336138    1.745181   -0.117839
O       2.305608    2.071811   -1.105391
C       1.228822    2.969319   -0.973831
C       0.259780    3.037976   -2.123502
O       0.150717    2.206715   -2.986439
C      -0.582395    4.249878   -2.113177
N      -1.234880    5.204031   -2.085180
H       0.441784    0.206167   -1.428453
H       1.631678    1.896741    0.919644
H       1.451385    3.925065   -0.499214
