14

C       0.026802    1.534299    0.041033
C      -0.029669    0.039312    0.036047
C      -1.184926   -0.669318   -0.082976
O      -2.406486   -0.110397   -0.209604
C      -1.168436   -2.121353   -0.080427
O      -2.156778   -2.809732   -0.182216
O       0.076357   -2.698477    0.048607
C       1.169790   -1.905360    0.161188
N       1.179904   -0.632224    0.161492
H       0.661365    1.889157   -0.778259
H      -0.967933    1.968644   -0.061769
H       0.480901    1.890100    0.972179
H      -3.029373   -0.853627   -0.273532
H       2.073263   -2.496960    0.254936
