18

O       0.171566    1.317166    0.054793
C      -0.019671   -0.086529    0.093039
C      -1.475802   -0.479430   -0.008607
O      -1.666194   -1.918857    0.047285
C      -2.435751   -1.903097   -1.187375
C      -2.383856   -0.371249   -1.242137
N      -3.408717    0.458413   -0.487486
C      -3.846169   -0.272880    0.720984
C      -2.519593    0.357292    0.757243
H      -0.116469    1.635831   -0.806949
H       0.555498   -0.607440   -0.686767
H       0.366654   -0.423939    1.061927
H      -1.886028   -2.391571   -2.001472
H      -3.417062   -2.378304   -1.081398
H      -2.115742    0.114543   -2.180137
H      -4.655760    0.243066    1.228071
H      -3.927590   -1.354202    0.724299
H      -2.278246    1.234170    1.347516
