23

C      -0.349887    1.493170   -0.061762
C      -0.065712   -0.004750    0.011853
C       1.100184   -0.468209   -0.910153
C       2.042145   -0.508640    0.316445
C       3.177212   -1.532926    0.480271
O       4.172834   -0.497026    0.600896
C       3.176450    0.533518    0.453363
C       0.787055   -0.483485    1.235109
C       0.793997    0.299656    2.539755
H       0.564660    2.090585    0.028116
H      -0.809964    1.746908   -1.022933
H      -1.034107    1.814276    0.730719
H      -1.003226   -0.553343   -0.120607
H       0.935437   -1.465243   -1.330882
H       1.383599    0.207645   -1.723421
H       3.121759   -2.156937    1.383544
H       3.358773   -2.181692   -0.387859
H       3.352152    1.150481   -0.438628
H       3.136185    1.188071    1.333455
H       0.519997   -1.525794    1.452143
H       1.025272    1.358156    2.387663
H      -0.182691    0.243443    3.032987
H       1.537695   -0.104345    3.235974
