23

C      -0.297010    1.549705   -0.124210
C       0.008955    0.071081    0.037828
C       1.308299   -0.610805   -0.329219
C       2.631360    0.167849   -0.341469
C       3.030938    0.449415    1.123696
C       4.476701    0.220119    1.502251
C       2.225994    1.463715    1.900759
C       1.870892   -0.005706    1.990808
C       0.817157   -0.642946    1.110520
H       0.587853    2.154467   -0.333453
H      -0.975762    1.685739   -0.973061
H      -0.790609    1.968741    0.759113
H      -0.851048   -0.534801   -0.243453
H       1.254967   -1.488245   -0.966043
H       3.402073   -0.456738   -0.805217
H       2.582597    1.085592   -0.940701
H       5.142812    0.922675    0.986178
H       4.629797    0.355335    2.577977
H       4.802285   -0.794508    1.242390
H       2.713260    1.891802    2.772529
H       1.568226    2.156710    1.398201
H       2.056119   -0.500309    2.939044
H       0.363502   -1.541923    1.515130
