21

C      -0.080528    1.494909   -0.219780
C      -0.079220   -0.019466    0.016622
C      -1.451001   -0.599846    0.183085
C      -2.579475   -0.281556    1.190327
C      -3.175232   -1.194583    0.097691
C      -4.591637   -1.571557   -0.197254
O      -2.440502   -0.383139   -0.928231
C      -1.903233   -2.091185    0.185611
O      -1.579906   -2.869464   -0.919065
H       0.935254    1.863199   -0.389872
H      -0.689090    1.746999   -1.092369
H      -0.492138    2.030943    0.641416
H       0.405111   -0.535207   -0.821995
H       0.503701   -0.269256    0.912235
H      -2.491406   -0.682099    2.204447
H      -2.940096    0.747093    1.168111
H      -5.197388   -0.683930   -0.402406
H      -4.634809   -2.234397   -1.067165
H      -5.025991   -2.099500    0.657572
H      -1.745221   -2.678582    1.093513
H      -1.743284   -2.288542   -1.677952
