16

O       0.015085    1.352768   -0.487582
C       0.022370    0.126910    0.223779
C      -1.350515   -0.522663    0.189292
C      -1.819125   -1.181503   -1.053657
O      -0.904999   -1.175845   -2.111628
C      -1.556460   -2.051202    0.182620
C      -0.424502   -3.005092    0.204760
O      -0.445328   -4.045663    0.819798
H      -0.124319    1.129555   -1.414990
H       0.792262   -0.549266   -0.163634
H       0.289221    0.370869    1.256532
H      -2.104780    0.022956    0.748085
H      -2.861821   -1.069057   -1.346519
H      -1.078556   -1.932151   -2.681874
H      -2.427117   -2.418940    0.715735
H       0.457948   -2.723566   -0.405598
