19

O       0.105507    1.157539   -0.546215
C       0.073942   -0.164587   -0.054245
C       0.484735   -0.347047    1.413870
C      -0.207612   -1.668246    1.754564
O      -1.370960   -1.736295    0.918069
C      -1.362641   -0.702245   -0.047121
C      -2.524043    0.321111    0.055723
O      -3.003698   -0.038992   -1.256151
C      -2.016071   -1.076824   -1.390924
H       1.024034    1.420214   -0.655648
H       0.680596   -0.829968   -0.690616
H       1.566487   -0.378938    1.568435
H       0.074262    0.482664    1.999223
H       0.440771   -2.528967    1.539135
H      -0.519205   -1.735867    2.801891
H      -3.239340    0.063544    0.846522
H      -2.245327    1.376978    0.116593
H      -1.392486   -0.939964   -2.283670
H      -2.455414   -2.081950   -1.394029
