18

C       0.030888    1.501821   -0.014012
C       0.009160   -0.005770    0.047088
C      -0.886492   -0.728600    1.038105
C       0.620614   -0.756385    1.187320
C       1.404988   -1.986345    0.797900
O       0.852034   -2.666801   -0.334722
C       0.468727   -1.962915   -1.436397
O       0.331081   -2.517224   -2.496733
N       0.243878   -0.619689   -1.240177
H       0.989367    1.864378   -0.399431
H      -0.764433    1.881247   -0.667039
H      -0.126841    1.928366    0.979838
H      -1.453819   -0.135175    1.746747
H      -1.379732   -1.634985    0.704381
H       1.063834   -0.181718    1.995477
H       2.444195   -1.707720    0.575597
H       1.418052   -2.733772    1.595996
H      -0.210776   -0.196784   -2.036789
