19

C       0.049916    1.480984    0.113906
C       0.147565   -0.055089    0.070550
C       0.868211   -0.558687    1.309412
O       1.842827   -1.264311    1.304804
C      -1.247147   -0.685441    0.038228
C      -2.158540   -0.694240   -1.227288
C      -1.276607   -1.782041   -1.885297
C      -1.525477   -2.152954   -0.403463
O      -2.946824   -1.771146   -0.587983
H       1.042215    1.941279    0.126018
H      -0.487982    1.856455   -0.761316
H      -0.490711    1.816447    1.005932
H       0.746014   -0.369145   -0.788194
H       0.406806   -0.221903    2.269155
H      -1.822746   -0.425483    0.932509
H      -2.711608    0.125773   -1.686594
H      -1.800335   -2.413945   -2.602826
H      -0.266028   -1.527811   -2.208691
H      -1.319972   -3.085081    0.122968
