19

C       0.039264    1.373250   -0.002512
N       0.189913   -0.071869    0.155409
C       1.518459   -0.654678    0.008305
C       0.844597   -0.615486    1.340080
C       1.384463    0.281119    2.459058
O       2.392060    1.196436    2.068809
C       0.185170   -1.899404    1.853167
C      -0.906582   -1.633423    2.791884
N      -1.756571   -1.402890    3.540166
H       0.890965    1.955880    0.368185
H      -0.102228    1.586674   -1.066239
H      -0.864883    1.692178    0.525101
H       1.578037   -1.582837   -0.556904
H       2.354660    0.025456   -0.140918
H       0.567845    0.888213    2.863544
H       1.732782   -0.362507    3.280828
H       3.193736    0.696798    1.884156
H      -0.215769   -2.454590    1.000888
H       0.923571   -2.538859    2.351937
