25

C      -0.049096    1.622554    0.094021
C      -0.005792    0.088831    0.038573
C       0.763377   -0.471512    1.242925
C      -1.409664   -0.538927   -0.042170
C      -2.201736   -0.202661   -1.310414
C      -3.553945   -0.926473   -1.379288
C      -4.331069   -0.580197   -2.625178
C      -5.792232   -0.443505   -2.636923
O      -4.950719    0.710944   -2.653708
H       0.961429    2.038867    0.162976
H      -0.523673    2.055225   -0.791235
H      -0.608390    1.964804    0.973498
H       0.539669   -0.200750   -0.871933
H       0.259187   -0.215472    2.182720
H       0.841355   -1.562954    1.195290
H       1.778636   -0.063936    1.291306
H      -1.308084   -1.630785    0.030152
H      -1.989069   -0.231901    0.840990
H      -2.386855    0.875233   -1.373986
H      -1.603880   -0.466686   -2.194198
H      -3.398170   -2.013818   -1.349395
H      -4.159101   -0.667089   -0.502072
H      -3.845207   -0.847904   -3.566494
H      -6.351040   -0.630027   -3.553293
H      -6.351251   -0.600453   -1.714883
