16

C      -0.136193    1.491289    0.006273
C       0.022075   -0.007932    0.016553
O       1.080003   -0.593347    0.032875
N      -1.180542   -0.737233    0.005449
C      -1.286468   -2.102985    0.001949
C      -2.616886   -2.402372   -0.014064
C      -3.274320   -1.129647   -0.016220
N      -4.637370   -0.905691   -0.099494
N      -2.412511   -0.128017    0.002054
H       0.857065    1.938838    0.013575
H      -0.694454    1.811143   -0.877221
H      -0.711541    1.821518    0.874855
H      -0.398951   -2.713042    0.007247
H      -3.070672   -3.380201   -0.032960
H      -5.205314   -1.588385    0.380287
H      -4.898813    0.040647    0.140921
