25

C      -0.133247    1.558440    0.051804
C      -0.030844    0.035269   -0.079843
C       0.817036   -0.451840   -1.270579
C       2.295596   -0.055422   -1.144110
C       0.678107   -1.965667   -1.430904
C      -0.703085   -2.586895   -1.794147
C       0.036210   -3.597451   -2.711568
C       1.276992   -2.663217   -2.687873
O       1.306176   -1.745002   -3.769804
H       0.840119    2.019983    0.243839
H      -0.537548    2.006499   -0.863038
H      -0.795702    1.836699    0.877832
H       0.380243   -0.386274    0.848676
H      -1.042947   -0.377709   -0.176132
H       0.421246    0.011758   -2.183508
H       2.419829    1.028780   -1.068650
H       2.748855   -0.504056   -0.250926
H       2.858409   -0.391075   -2.019122
H       1.079866   -2.464442   -0.539216
H      -1.307693   -2.994521   -0.980981
H      -1.315315   -1.888505   -2.371516
H       0.233237   -4.549387   -2.209806
H      -0.393706   -3.799665   -3.696783
H       2.255984   -3.146107   -2.565147
H       1.471229   -2.244055   -4.575932
