16

N      -0.040028    1.408476    0.043609
C       0.046436    0.026357   -0.002416
N      -1.064001   -0.701126   -0.012114
O      -0.621022   -2.073981    0.047722
C       0.698218   -2.033424    0.051565
C       1.213021   -0.780717    0.005932
C       2.709347   -0.871513    0.127101
C       2.921901   -2.412714   -0.101479
N       1.608862   -3.057726    0.202491
H       0.666235    1.882438   -0.501170
H      -0.968352    1.745677   -0.176802
H       3.279289   -0.291815   -0.605769
H       3.065715   -0.573549    1.121444
H       3.201329   -2.596458   -1.146747
H       3.702341   -2.827345    0.540277
H       1.419219   -3.920703   -0.290109
