18

C      -0.270090    1.501663    0.249051
C      -0.018574    0.020970    0.064850
C       0.542477   -0.602071   -1.201168
C       1.106117    0.194416   -2.355768
O       1.998740    1.255987   -1.988072
C       2.845764    1.160101   -0.927074
O       3.770659    1.925989   -0.821707
N       2.557027    0.191344   -0.001102
C       1.368160   -0.606994    0.047029
H       0.457530    2.122666   -0.274164
H      -1.261535    1.767758   -0.132833
H      -0.244285    1.768321    1.311012
H      -0.761732   -0.607395    0.551357
H       0.108031   -1.544775   -1.520728
H       1.645499   -0.489558   -3.024443
H       0.320081    0.680390   -2.941811
H       3.105698    0.285893    0.839223
H       1.519082   -1.538476    0.582652
