15

C       0.041223    1.523621    0.036228
C       0.043388    0.034796   -0.054177
C       0.030300   -0.830402   -1.132104
O       0.004340   -0.559408   -2.462174
C       0.045809   -2.142626   -0.585305
C       0.039137   -3.405391   -1.333050
O       0.052892   -4.510723   -0.842922
N       0.068060   -2.089223    0.755469
N       0.067179   -0.791620    1.038526
H       0.986915    1.920240    0.424019
H      -0.113201    1.967559   -0.952310
H      -0.765610    1.893368    0.678937
H       0.027111    0.392875   -2.600076
H       0.019991   -3.261418   -2.434703
H       0.080390   -0.508774    2.005586
