16

O       0.118951    1.217864   -0.419263
C       0.000376   -0.115086   -0.098802
C      -0.265505   -0.596775    1.280096
C      -1.377699   -0.741981    0.233017
C      -2.508075    0.209364    0.321542
O      -2.374517    1.360711    0.693757
N      -3.740132   -0.315950   -0.084812
C      -4.971984    0.335133   -0.157545
O      -5.195776    1.479266    0.118016
H      -0.598644    1.690757    0.037566
H       0.632989   -0.724111   -0.736659
H       0.199924   -1.512419    1.627325
H      -0.444053    0.156544    2.040171
H      -1.583473   -1.735754   -0.150276
H      -3.747172   -1.287015   -0.360081
H      -5.748259   -0.371435   -0.516765
