17

O      -0.022521    0.014199   -0.013574
C       0.020321    1.207081   -0.022052
O      -1.101714    1.991000   -0.023551
C      -0.719480    3.390254   -0.050244
C       0.653239    3.365023   -0.738366
C       1.235086    2.151547    0.000410
C       1.465147    2.527169    1.454930
C       0.613935    3.343951    2.078763
C      -0.602910    3.910943    1.387741
H      -1.496411    3.915908   -0.607560
H       0.547943    3.176885   -1.810677
H       1.226597    4.280817   -0.583052
H       2.103355    1.682467   -0.458375
H       2.312026    2.088556    1.971355
H       0.767837    3.611020    3.120510
H      -0.566229    5.009008    1.380232
H      -1.513447    3.639701    1.937329
