17

N      -0.219015    1.413474    0.079124
C       0.089997    0.059492    0.030964
O       1.227866   -0.360473    0.016503
N      -1.032124   -0.755399    0.047055
C      -1.010943   -2.147119    0.050965
C      -0.001912   -3.016791   -0.000305
C      -0.561879   -4.409051    0.010004
O      -1.984183   -4.256942    0.092710
C      -2.326270   -2.886216    0.099393
H       0.582065    1.993947   -0.118827
H      -1.068260    1.725942   -0.367561
H      -1.923467   -0.318211    0.218528
H       1.047659   -2.778229   -0.042237
H      -0.308836   -4.977536   -0.899328
H      -0.212086   -5.003532    0.868554
H      -2.905115   -2.641275    1.007211
H      -2.966289   -2.642690   -0.766755
