19

C      -0.601828    1.018174    0.008678
N       0.406887   -0.025390   -0.198778
C       0.893678   -0.648130    0.985092
C       1.693924   -0.185969    2.015058
N       1.880528   -1.211194    2.899963
C       2.565603   -1.108693    4.168136
C       1.196340   -2.335542    2.466815
C       0.585931   -2.006199    1.280374
O      -0.166781   -2.801718    0.479116
H      -0.247839    1.868173    0.612995
H      -0.935020    1.398988   -0.962307
H      -1.465760    0.584112    0.520090
H       1.165702    0.335450   -0.765935
H       2.145337    0.779081    2.185372
H       1.867654   -0.962835    5.001953
H       3.144869   -2.017529    4.356623
H       3.255443   -0.262205    4.139672
H       1.219150   -3.255340    3.026258
H      -0.363315   -2.249020   -0.293368
