21

C      -0.002348    1.551367    0.009022
C       0.019211    0.020022   -0.018024
C       0.671027   -0.517542   -1.301102
C       0.678643   -2.043584   -1.347295
O       1.323825   -2.427087   -2.552677
C       1.391087   -2.628214   -0.112313
C       0.826380   -2.066679    1.186810
O       0.470226   -2.773173    2.100689
C       0.730506   -0.548689    1.229550
H       1.015666    1.957265   -0.018722
H      -0.545709    1.953797   -0.852100
H      -0.485951    1.925223    0.917209
H      -1.021866   -0.333774    0.005846
H       0.146560   -0.137971   -2.184259
H       1.708341   -0.162463   -1.372344
H      -0.365693   -2.399237   -1.348051
H       1.308554   -3.388035   -2.609366
H       1.321992   -3.719608   -0.082173
H       2.451840   -2.351437   -0.182898
H       1.753195   -0.144483    1.266454
H       0.223488   -0.258297    2.153185
