21

C       0.470186    1.399789   -0.276680
C       1.422436    0.290148    0.104776
C      -0.049579    0.019840   -0.011443
C      -0.956233   -0.519811    1.101532
C      -1.213510   -1.768017    0.204115
C      -0.627377   -0.993219   -1.001946
C      -1.525556   -0.555228   -2.182459
C      -0.535703   -1.354787   -3.047960
O       0.272530   -1.675842   -1.895465
H       0.260359    2.172710    0.456098
H       0.486564    1.753981   -1.303436
H       2.056408   -0.125156   -0.671017
H       1.862090    0.308147    1.097037
H      -0.490380   -0.701588    2.073062
H      -1.856447    0.083954    1.252693
H      -0.558042   -2.602692    0.465040
H      -2.240448   -2.131304    0.113737
H      -2.549927   -0.931575   -2.157343
H      -1.539926    0.520835   -2.366123
H      -0.941343   -2.255879   -3.523655
H       0.026830   -0.782890   -3.795176
