17

O       0.022298   -0.106199    0.048751
C      -0.004514    1.096355    0.171558
C      -1.309445    1.861181    0.361379
N      -1.093866    3.173329    0.969323
C       0.194049    3.762849    0.743677
C       1.088065    3.400396   -0.499980
N       2.259235    3.883253    0.327380
C       1.446179    3.004033    1.252091
C       1.225013    1.959800    0.100047
H      -1.749509    1.929470   -0.649629
H      -1.990256    1.250574    0.962498
H      -1.833663    3.817006    0.723984
H       0.191086    4.823999    0.992832
H       0.970762    3.672867   -1.550497
H       3.095802    3.366580    0.039161
H       1.745422    2.795295    2.280049
H       2.106204    1.385417   -0.197986
