19

C       0.069658    1.417608    0.033932
C       1.319825    0.641758   -0.036168
C       1.713495    0.114422    1.339647
C       0.307547   -0.528237    1.388087
C       0.101833   -2.067491    1.572205
C      -0.919660   -1.759637    2.668674
N      -0.190108   -0.976059    3.696744
C      -0.730693   -0.295695    2.489907
N      -0.033386   -0.057750   -0.002572
H      -0.186034    1.948702    0.948785
H      -0.294780    1.883332   -0.876442
H       1.939215    0.619183   -0.926768
H       2.506888   -0.634756    1.311106
H       1.958792    0.859161    2.102110
H      -0.343723   -2.489206    0.669100
H       0.971678   -2.651957    1.882695
H      -1.811955   -2.315807    2.926785
H      -0.846578   -0.790659    4.455557
H      -1.437028    0.521256    2.575554
