17

C      -0.623966    1.095555    0.048333
N       0.364891    0.023673    0.170449
C       0.862713   -0.532213   -1.068721
C       2.361449   -0.800323   -0.961259
O       3.040448   -0.401154   -0.053235
C       0.145355   -1.885089   -1.366173
O       0.144280   -2.669707   -0.207099
C      -1.224779   -1.648806   -1.879009
N      -2.291755   -1.453117   -2.277778
H      -0.264903    1.950920   -0.545707
H      -1.536492    0.716187   -0.417549
H      -0.881373    1.453864    1.048176
H       1.164413    0.319809    0.722796
H       0.732174    0.136737   -1.938284
H       2.793441   -1.385527   -1.800260
H       0.693188   -2.430667   -2.144587
H      -0.014050   -2.027056    0.509824
