14

N       0.037157   -1.111501   -0.005782
C       0.040470    0.042716    0.001652
C      -0.005017    1.504240    0.011838
O       1.336690    1.986303   -0.000431
C       1.418999    3.329891    0.006869
N       0.435136    4.186039    0.023686
C       1.058646    5.426134    0.024067
C       2.414323    5.287568    0.007259
N       2.642045    3.915867   -0.003859
H      -0.554226    1.872505   -0.861970
H      -0.533901    1.860830    0.902861
H       0.481773    6.337307    0.036466
H       3.224635    5.996150    0.002100
H       3.527142    3.438536   -0.017094
