21

C       0.411085    1.151960   -0.651085
C      -0.009746   -0.227596   -0.136096
C      -1.424102   -0.248411    0.445846
C      -2.576245   -0.201002   -0.608081
C      -2.736239   -1.727220   -0.446327
C      -1.930311   -1.662108    0.868439
O      -4.078001   -2.194012   -0.327107
C      -4.480422   -3.218591   -1.100363
O      -5.584524   -3.671313   -1.055458
H       1.425050    1.130783   -1.061820
H      -0.259278    1.507158   -1.441147
H       0.392512    1.893916    0.154800
H       0.068637   -0.963602   -0.948269
H       0.693467   -0.558696    0.639152
H      -1.501601    0.510607    1.229503
H      -3.462437    0.314430   -0.230440
H      -2.343801    0.176591   -1.607153
H      -2.222931   -2.293834   -1.231164
H      -1.181164   -2.440000    1.038551
H      -2.606774   -1.621936    1.725465
H      -3.680724   -3.586872   -1.773615
