16

C       0.561317    1.028908    0.129382
N      -0.481845    0.262083   -0.551623
C       0.015899   -0.634588   -1.565367
C       0.678660   -1.910392   -1.023551
O       0.608588   -2.237110    0.140941
C       1.362777   -2.729759   -2.007928
C       1.919371   -3.382837   -2.862292
C       2.616652   -4.161792   -3.858608
O       2.072258   -4.926259   -4.618552
H       1.338536    0.414794    0.609093
H       1.046493    1.696433   -0.591603
H       0.098068    1.653679    0.897705
H      -0.999710   -0.278076    0.134452
H      -0.802404   -0.970513   -2.220609
H       0.724727   -0.112634   -2.219868
H       3.712616   -3.998554   -3.870065
