18

C       0.017890    1.536286   -0.063049
C       0.002764    0.008861   -0.002818
O       0.617056   -0.461519   -1.190646
C       0.930601   -1.842625   -1.152070
C       2.007750   -2.129346   -0.104827
C       1.616621   -1.466452    1.200725
C       0.678176   -0.510774    1.237630
C       2.265514   -1.904218    2.395713
N       2.811466   -2.281872    3.345155
H       1.046473    1.906558   -0.060877
H      -0.472291    1.870584   -0.980580
H      -0.512833    1.961052    0.793769
H      -1.051719   -0.328895    0.022864
H       0.028355   -2.435600   -0.931376
H       1.274004   -2.109120   -2.154958
H       2.119427   -3.209540    0.040297
H       2.980666   -1.751498   -0.441198
H       0.373502   -0.073230    2.183587
