15

N      -0.027155    1.512052   -0.042694
C       1.444685    1.666386   -0.011971
C       1.863025    0.732904    1.148113
C       0.975984   -0.267106    1.151550
C      -0.004721    0.032439   -0.006329
C       0.849884   -0.243441   -1.275917
O       0.805919    0.765314   -2.289296
C       1.816178    0.845868   -1.279669
H      -0.399826    1.845694    0.843720
H       1.786136    2.700225    0.025646
H       2.748853    0.844687    1.759245
H       0.972775   -1.157585    1.766129
H      -0.990316   -0.429727    0.036462
H       1.062410   -1.258466   -1.595618
H       2.848206    0.754672   -1.602555
