16

O      -0.036592    0.298617   -0.925986
C      -0.011644    1.305180   -0.283485
C      -1.081247    2.131441    0.484043
C      -0.012198    3.226800    0.667839
C      -0.152178    4.683909    0.469414
N       0.214965    4.126430    1.790308
C       1.061554    2.323110    0.089175
C       2.427308    2.077416    0.579924
O       2.178959    2.720843   -0.671412
H      -1.964555    2.391487   -0.104635
H      -1.399406    1.641305    1.410442
H       0.642390    5.231626   -0.028655
H      -1.151962    5.086869    0.329763
H      -0.592717    4.130636    2.409120
H       2.802128    2.720997    1.372940
H       2.846496    1.075290    0.514303
