20

C       0.216155    1.632753   -0.027709
C       0.059586    0.121937    0.049951
N       0.935811   -0.683702   -0.852280
C       1.368940   -1.601572    0.243690
C       2.869661   -1.838645    0.364386
C       3.423497   -2.685880   -0.782939
O       4.814340   -2.933679   -0.663042
C       0.710897   -0.620850    1.230576
O       0.752072   -0.457474    2.413069
H       1.270750    1.913087    0.038066
H      -0.182144    2.017863   -0.971478
H      -0.325971    2.109068    0.795078
H      -1.005145   -0.153901   -0.013017
H       0.436598   -1.144382   -1.604218
H       0.831246   -2.563832    0.253611
H       3.378500   -0.866264    0.377972
H       3.079803   -2.333007    1.319549
H       2.947060   -3.673411   -0.781657
H       3.181059   -2.206808   -1.744116
H       5.269992   -2.088902   -0.734972
