25

C       0.482665    1.405304    0.016657
C       0.270554   -0.097555    0.217736
C      -1.191545   -0.530646    0.049311
C      -1.392692   -2.033215    0.238896
C      -1.251517   -2.707908    1.648891
C      -2.593217   -3.422293    1.424514
C      -3.723552   -2.447242    1.251466
C      -3.938667   -1.181094    2.056962
C      -2.782490   -2.673859    0.092676
H       1.534016    1.683095    0.142388
H       0.173577    1.717312   -0.987361
H      -0.103686    1.987650    0.736282
H       0.895635   -0.654620   -0.493170
H       0.620970   -0.386366    1.217496
H      -1.818576    0.035466    0.747164
H      -1.537024   -0.254034   -0.957166
H      -0.711177   -2.552188   -0.446261
H      -0.400813   -3.389637    1.709121
H      -1.206938   -2.034759    2.512017
H      -2.769676   -4.469618    1.640810
H      -4.660391   -2.972394    1.065916
H      -3.004861   -0.732873    2.401809
H      -4.474392   -0.424607    1.472760
H      -4.540356   -1.399181    2.946791
H      -3.163904   -3.062406   -0.846025
