22

C       0.104240    1.606394    0.074656
C      -0.026382    0.093850   -0.133440
C      -1.430207   -0.501094   -0.039477
C      -2.510717    0.197404    0.759089
C      -2.573364    0.190823   -0.749685
C      -1.509116   -2.010036   -0.025648
C      -0.494600   -2.913693   -0.683497
C      -0.618168   -2.886404    0.821713
H       1.143735    1.913990   -0.074905
H      -0.507123    2.177729   -0.630929
H      -0.181585    1.905006    1.087560
H       0.387359   -0.158805   -1.118229
H       0.620054   -0.403210    0.601203
H      -3.212247   -0.424290    1.305651
H      -2.281930    1.135489    1.250914
H      -2.379220    1.123232   -1.268488
H      -3.319458   -0.431038   -1.233567
H      -2.535250   -2.363500   -0.097676
H      -0.855222   -3.784791   -1.219721
H       0.391963   -2.467058   -1.118738
H       0.185414   -2.423614    1.383953
H      -1.068111   -3.737233    1.321808
