17

C      -0.143378    1.555633    0.044060
C       1.392412    1.536194   -0.180373
N       1.408674    0.148762    0.312663
C      -0.057415    0.020338    0.262302
C       2.299610   -0.802329   -0.102998
N       3.451120   -0.464952   -0.655414
O       4.110096   -1.679888   -0.900739
C       3.325581   -2.685346   -0.501145
C       2.162299   -2.223426    0.015837
H      -0.446226    2.103191    0.937598
H      -0.748337    1.883809   -0.800838
H       1.696662    1.615439   -1.231435
H       1.996099    2.229333    0.412148
H      -0.508664   -0.378045    1.177064
H      -0.414230   -0.567281   -0.594582
H       3.724364   -3.678574   -0.643415
H       1.340847   -2.785923    0.425842
