20

C      -0.304698    1.185060    0.011082
O       0.764365    0.261969    0.081624
C       0.630442   -0.649558    1.121830
C      -0.220244   -1.881369    0.914088
C       1.303863   -1.976036    0.952766
C       2.099085   -2.273830   -0.301131
C       2.283923   -3.749310   -0.663767
N       1.326383   -4.601247   -0.194050
O       3.218315   -4.128623   -1.342229
H      -0.379848    1.785675    0.929955
H      -0.099662    1.849787   -0.830886
H      -1.267161    0.679404   -0.151863
H       0.631168   -0.197531    2.115192
H      -0.801644   -2.268383    1.744441
H      -0.692379   -1.974645   -0.059226
H       1.723591   -2.394828    1.863593
H       1.632398   -1.779504   -1.159821
H       3.106385   -1.853779   -0.228275
H       0.523566   -4.271182    0.311674
H       1.374782   -5.566907   -0.473568
