14

O       0.264108    1.529455   -0.022613
C       0.092462    0.139046    0.029440
C       0.677852   -0.499428   -1.218884
O       1.108031    0.171928   -2.123331
C       0.802857   -0.414064    1.292037
O       2.158060   -0.009932    1.269423
C       0.105392   -0.001312    2.513923
C      -0.463773    0.344446    3.513716
H       0.611971    1.712128   -0.911565
H      -0.975247   -0.136853    0.074077
H       0.671807   -1.606981   -1.259811
H       0.808914   -1.510432    1.239232
H       2.134728    0.948820    1.140946
H      -0.962093    0.648240    4.401296
