16

O      -0.082321    1.485041    0.148689
C      -0.023085    0.084790    0.086346
C       0.207901   -0.736092    1.389959
C      -0.933238   -0.235549    2.286918
N      -1.926219   -0.882896    1.359586
C      -0.849955   -1.753670    0.834057
C      -1.363060   -0.638579   -0.028319
C      -2.246892   -0.656312   -1.141024
C      -2.960683   -0.658883   -2.108755
H       0.803235    1.839073    0.021884
H       0.639497   -0.265164   -0.715059
H       1.213622   -0.941617    1.750900
H      -0.989709   -0.752327    3.247667
H      -1.046793    0.844094    2.415007
H      -0.912309   -2.826454    0.715455
H      -3.603304   -0.659553   -2.953821
