19

O      -0.000364    1.419772   -0.058195
C       0.112836    0.013324    0.035267
C       0.573366   -0.546995    1.431919
C      -0.702301   -0.546354    2.381436
C      -1.174073   -1.506525    1.270783
C       0.276538   -2.049782    1.200369
O      -2.297247   -2.301500    0.868985
C      -2.089942   -1.810570   -0.503617
C      -1.303586   -0.599826    0.066079
H       0.881845    1.796324    0.021516
H       0.772227   -0.379281   -0.752046
H       1.535847   -0.208762    1.817005
H      -0.457379   -1.002573    3.343313
H      -1.256423    0.384950    2.514427
H       0.626333   -2.507412    0.270671
H       0.530354   -2.679557    2.055222
H      -1.511334   -2.530443   -1.093663
H      -3.040992   -1.596922   -0.996780
H      -2.011442    0.209917    0.259081
