17

O      -0.199959    1.148356   -0.381306
C      -0.180381   -0.206409   -0.082304
C      -0.471810   -0.674222    1.340006
C      -0.810584    0.340683    2.290513
C      -1.066660    1.248794    3.039961
C      -1.440963   -0.988083    0.189313
C      -2.816400   -0.392964    0.170703
C      -3.213689    0.691842   -0.740989
O      -3.581220   -0.661756   -1.006895
H      -0.362191    1.638033    0.436903
H       0.615999   -0.722389   -0.610961
H       0.115758   -1.500190    1.727935
H      -1.309113    2.018538    3.730593
H      -1.422994   -2.027155   -0.129551
H      -3.382686   -0.509011    1.095590
H      -4.034449    1.350211   -0.458012
H      -2.470102    1.117543   -1.407265
