19

O      -0.003359   -0.007761   -0.320852
C      -0.013123    1.146648    0.013306
O      -1.218908    1.737801    0.251359
C      -1.383261    2.868613    1.120249
C      -0.724815    4.176135    0.679481
C       0.782228    4.082473    0.407915
C       1.102100    3.258594   -0.869456
C       1.249579    1.989920    0.031129
C       1.487612    2.964092    1.226684
H      -2.466259    3.005565    1.169145
H      -1.050295    2.590541    2.126458
H      -1.230874    4.564175   -0.212830
H      -0.915127    4.895552    1.486567
H       1.229045    5.078515    0.457625
H       0.346465    3.232180   -1.658465
H       2.065241    3.533974   -1.305418
H       2.063840    1.306921   -0.206137
H       2.558845    3.158171    1.321207
H       1.102903    2.700634    2.213960
