14

O       0.426158    0.213953   -0.482889
C       0.504623    1.404453   -0.482294
O       0.796599    2.107694    0.633702
C       0.925533    3.529613    0.497009
C       2.337201    3.919417    0.202404
N       3.075452    4.620753    1.048418
N       4.246827    4.724845    0.380659
C       4.168038    4.092070   -0.807585
N       2.967634    3.571852   -0.958200
H       0.338938    2.047848   -1.366247
H       0.260531    3.888784   -0.297448
H       0.611402    3.963656    1.446436
H       5.019523    5.219736    0.795873
H       4.987165    4.041377   -1.508969
