18

C      -0.027085    1.518865    0.019900
C       0.010451   -0.016563    0.005734
C       0.989412   -0.609647   -1.081807
C       1.976636   -1.290711   -0.114270
C       1.069474   -2.058559    0.872175
C       0.774903   -0.595321    1.250669
O       2.148526   -0.261024    0.916741
C      -1.341760   -0.561797   -0.098000
N      -2.412271   -0.994638   -0.165038
H       0.986561    1.892320    0.180818
H      -0.403192    1.909348   -0.929544
H      -0.674723    1.888892    0.820129
H       0.502664   -1.307140   -1.766207
H       1.464818    0.185059   -1.659904
H       2.910867   -1.685450   -0.511212
H       0.263422   -2.686838    0.488033
H       1.645506   -2.564476    1.646440
H       0.447431   -0.263018    2.235189
