15

O       0.311320    1.360354    0.271328
C       0.173126    0.027547    0.062709
C       0.031630   -0.783925   -1.029379
N      -0.063691   -2.133215   -0.641273
C       0.029254   -2.074193    0.644416
O      -0.082907   -3.006385    1.621211
C       0.247487   -2.336217    2.855629
C       0.084616   -0.808021    2.594202
N       0.204099   -0.819431    1.154070
H       0.303233    1.802536   -0.583403
H       0.011607   -0.500439   -2.070024
H      -0.416888   -2.711181    3.635041
H       1.284717   -2.573531    3.117344
H      -0.891784   -0.426421    2.916008
H       0.868510   -0.224114    3.082063
