21

C      -0.000973    1.524483   -0.015947
C       1.313320    0.789050   -0.081422
C       0.009938    0.016915    0.012738
C      -0.383708   -0.769982    1.290995
C      -0.544197   -2.213356    0.773228
C      -1.870418   -3.055797    0.738325
C      -1.678740   -3.227083   -0.817168
C      -0.747292   -2.042093   -0.709617
C      -0.516106   -0.803152   -1.134164
H      -0.251249    2.042992    0.904754
H      -0.359946    2.019324   -0.913094
H       1.847146    0.774751   -1.025858
H       1.955689    0.810260    0.793201
H       0.350520   -0.664768    2.095352
H      -1.342518   -0.391595    1.667496
H       0.306267   -2.855415    1.033361
H      -1.902161   -3.970081    1.336224
H      -2.745330   -2.440458    0.963832
H      -1.165697   -4.166700   -1.050154
H      -2.554974   -3.135138   -1.463320
H      -0.742066   -0.377377   -2.105708
