19

C      -0.071532    1.599330    0.039330
C       0.009261    0.076364    0.040957
C      -1.383770   -0.532713   -0.095796
C       1.157856   -0.670769   -0.721126
C       2.214924   -0.144380    0.275590
C       0.976279   -0.660834    1.058840
O       0.968836   -1.843438    0.172233
C       0.799302   -0.872795    2.525712
O       0.782284    0.031203    3.323049
H       0.893621    2.103301    0.092676
H      -0.575733    1.941753   -0.871264
H      -0.670138    1.939868    0.890357
H      -1.842447   -0.214183   -1.038630
H      -1.345057   -1.621409   -0.076984
H      -2.035835   -0.185291    0.713062
H       1.257434   -0.879444   -1.787321
H       3.089317   -0.787157    0.374717
H       2.463726    0.914187    0.306980
H       0.671326   -1.936654    2.824817
