21

C      -0.100981    1.519903   -0.150277
C       0.037097    0.012560    0.003033
O       0.737610   -0.472084   -1.149154
C       0.853120   -1.869772   -1.144177
O       1.556305   -2.358224   -0.031293
C       0.892585   -1.992328    1.175257
C       0.767645   -0.466714    1.276928
C       2.147115    0.206001    1.437982
O       2.952908   -0.409416    2.434649
H       0.876713    2.001542   -0.230700
H      -0.666668    1.752587   -1.056383
H      -0.629688    1.944186    0.708844
H      -0.971376   -0.437909    0.007479
H      -0.155282   -2.327256   -1.172508
H       1.420835   -2.148910   -2.034155
H      -0.107322   -2.455823    1.208456
H       1.482591   -2.396429    2.000008
H       0.150797   -0.234232    2.154344
H       2.658641    0.219982    0.468563
H       2.013792    1.243641    1.757986
H       3.400435   -1.155291    2.024630
