16

N      -0.092326    1.447612   -0.152241
C      -0.010139    0.011775   -0.042618
C       0.761467   -0.736671   -1.106356
C       0.087445   -1.777056   -1.598296
C      -1.273717   -1.950696   -0.962393
C      -1.288472   -0.876885    0.121337
O      -0.761427   -1.373055    1.406477
C       0.298308   -0.510937    1.374188
O       1.101252   -0.289089    2.223468
H       0.506567    1.889894    0.537102
H       0.197845    1.767038   -1.069225
H       1.760307   -0.429300   -1.395165
H       0.460428   -2.452308   -2.360338
H      -2.086170   -1.820160   -1.687733
H      -1.404291   -2.943014   -0.514513
H      -2.230684   -0.357003    0.287160
