18

N      -0.081986    1.310179   -0.513462
C      -0.067479    0.066611   -0.304534
O       1.072378   -0.679887   -0.151904
C       0.753168   -2.069744    0.012346
C      -0.688295   -2.216754   -0.494031
C      -1.286791   -0.832189   -0.188390
C      -1.916932   -0.775727    1.231003
C      -2.553718    0.492259    1.556695
C      -3.102498    1.525776    1.826959
H       0.870257    1.680692   -0.532775
H       1.480999   -2.653047   -0.556732
H       0.849853   -2.336105    1.072365
H      -0.690353   -2.397938   -1.572664
H      -1.221093   -3.039802   -0.011470
H      -2.039272   -0.523545   -0.914650
H      -2.660820   -1.579941    1.298316
H      -1.150771   -1.006553    1.982794
H      -3.569159    2.450925    2.057922
