18

C       0.018403    1.387829   -0.018194
O       0.012975   -0.017599    0.042610
C      -1.287636   -0.562220   -0.005901
C      -1.167715   -2.080066    0.044677
C      -2.540508   -2.773770   -0.004748
O      -3.284107   -2.410830   -1.168047
C      -2.401990   -4.228339    0.112451
C      -2.265077   -5.421525    0.164438
H       1.060779    1.713866    0.019598
H      -0.437273    1.759601   -0.949884
H      -0.524813    1.836845    0.828905
H      -1.890419   -0.197904    0.845562
H      -1.809516   -0.253357   -0.924304
H      -0.555298   -2.426429   -0.796043
H      -0.646939   -2.376231    0.961358
H      -3.150055   -2.408346    0.831869
H      -2.887560   -2.869489   -1.917469
H      -2.159502   -6.476720    0.224629
