16

O       0.012667    1.391857    0.040715
C       0.004381   -0.018897   -0.112373
C      -1.399444   -0.556416   -0.061025
C      -2.598158   -0.311718   -1.049963
C      -3.246421   -1.177608    0.086477
C      -1.929623   -2.031322    0.036718
C      -2.448482   -0.264355    1.022938
O      -2.551747    0.370468    2.030331
H      -0.390477    1.588854    0.894371
H       0.474643   -0.227231   -1.079393
H       0.613320   -0.516451    0.659737
H      -2.948510    0.713588   -1.174696
H      -2.498796   -0.832005   -2.005923
H      -4.271154   -1.534311    0.152077
H      -1.811135   -2.614940   -0.879605
H      -1.664429   -2.608631    0.924665
