16

N      -0.189475    1.359379    0.048434
C       0.044847   -0.030085   -0.006184
C       0.933576   -0.909423   -0.887662
N       0.089681   -2.108454   -0.500828
C       0.401297   -2.225200    0.982626
C      -0.302671   -0.900798    1.207779
C      -1.026518   -1.111614   -0.107094
C      -2.377671   -1.115509   -0.509428
N      -3.485795   -1.106693   -0.847795
H       0.519940    1.848397    0.583202
H      -0.245341    1.775888   -0.874354
H       0.800535   -0.700307   -1.952619
H       1.999582   -1.012824   -0.656289
H      -0.141395   -3.075288    1.401290
H       1.468068   -2.310901    1.213092
H      -0.710986   -0.454120    2.104999
