16

C       0.101505    1.489493    0.024007
C      -0.063586    0.003096    0.015350
C      -1.239988   -0.680726    0.002360
N      -2.509537   -0.068683    0.073903
C      -1.168522   -2.111831    0.000081
C       0.017014   -2.763450    0.011061
C       1.269502   -2.038453    0.046853
O       2.384551   -2.492550    0.069264
O       1.128123   -0.648177    0.055598
H       1.065377    1.752145   -0.417617
H      -0.687291    1.984157   -0.552089
H       0.077729    1.898053    1.041936
H      -2.486579    0.930722   -0.076865
H      -3.179769   -0.486218   -0.560541
H      -2.100455   -2.671470   -0.004911
H       0.088035   -3.843313    0.003091
