20

C       0.005466    1.529099    0.103773
C       0.074142    0.017515   -0.029840
O       0.660232   -0.505442    1.152617
C       0.733008   -1.914382    1.217723
C       1.986622   -2.442249    0.512728
O       2.118553   -3.858452    0.692987
C       1.776345   -4.319459    1.923046
N       1.216495   -3.716049    2.880993
C       0.804230   -2.328168    2.687126
H       1.007587    1.950203    0.223961
H      -0.451904    1.969329   -0.787226
H      -0.590486    1.808887    0.976914
H      -0.933954   -0.406509   -0.165290
H       0.663822   -0.259471   -0.917657
H      -0.154943   -2.369256    0.750935
H       1.962133   -2.277887   -0.566463
H       2.870067   -1.938300    0.924809
H       2.055681   -5.367716    2.011078
H       1.504618   -1.662334    3.207457
H      -0.169466   -2.186994    3.167199
