15

O      -0.038913    1.388993    0.026400
C       0.051322   -0.019112   -0.043942
C      -1.323624   -0.606121   -0.133106
C      -1.948321   -2.013361    0.073773
C      -3.207779   -1.527917   -0.658649
C      -3.062631   -1.337362    0.827866
N      -2.437751    0.046443    0.656663
C      -2.545000   -0.139525   -0.840295
H      -0.736902    1.573664    0.671020
H       0.645905   -0.264381   -0.931609
H       0.573304   -0.443833    0.831045
H      -1.536808   -3.009761    0.144851
H      -3.922877   -2.095616   -1.235789
H      -3.669937   -1.642116    1.670669
H      -2.715796    0.692160   -1.512684
