23

C       0.047260    1.555864    0.133416
C       0.124948    0.035115   -0.010527
C       1.054100   -0.495837   -1.146039
C       1.965895   -1.395724   -0.306006
C       2.296739   -0.441249    0.938582
C       0.768865   -0.686685    1.215595
C      -0.298153   -1.251727    2.204659
C      -0.455959   -2.458740    1.170019
C       1.009926   -2.097401    0.733268
H       1.032856    2.010352    0.276097
H      -0.396773    2.009512   -0.759481
H      -0.574850    1.837464    0.990748
H      -0.895513   -0.325198   -0.167306
H       0.507947   -1.049308   -1.915819
H       1.613210    0.303797   -1.643793
H       2.762292   -1.936404   -0.822082
H       2.951882   -0.919622    1.668403
H       2.660411    0.564938    0.708811
H       0.122260   -1.606780    3.149143
H      -1.180546   -0.639138    2.413533
H      -0.596465   -3.455341    1.594947
H      -1.240760   -2.279652    0.434642
H       1.656421   -2.614040    1.451764
