20

N       0.122453    0.987918    0.687265
C      -0.153817    0.302516   -0.462195
O       0.561316    0.384541   -1.445395
C      -1.397000   -0.576492   -0.395277
C      -2.067015   -0.835009   -1.783201
C      -1.982381   -2.374363   -1.823580
C      -2.404424   -2.762565   -0.377047
C      -1.068619   -2.051335   -0.016507
C      -0.519937   -2.628138   -1.354404
H       0.981632    1.510730    0.735224
H      -0.421464    0.873792    1.523939
H      -2.102397   -0.151717    0.327369
H      -3.096618   -0.467938   -1.817788
H      -1.493403   -0.363626   -2.583552
H      -2.401578   -2.870719   -2.699008
H      -3.336903   -2.349727    0.022493
H      -2.361063   -3.839542   -0.197323
H      -0.563838   -2.211398    0.937558
H      -0.285431   -3.692030   -1.272937
H       0.284154   -2.086317   -1.854138
