19

O      -0.068199    1.421666    0.170277
C      -0.027062    0.044919   -0.041960
C       0.834366   -0.484502   -1.179753
C       0.199079   -1.835220   -1.589698
C      -1.276798   -1.775182   -1.111095
C      -1.302365   -0.736028   -0.003011
C      -0.303994   -0.861687    1.160104
C       0.428458   -2.048103    1.483325
C       1.047262   -3.033190    1.795141
H       0.783558    1.694639    0.529137
H       0.773310    0.249717   -1.990963
H       1.890285   -0.590776   -0.907770
H       0.271415   -2.007876   -2.666610
H       0.717916   -2.656494   -1.093803
H      -1.936093   -1.435875   -1.918229
H      -1.640361   -2.755337   -0.786849
H      -2.234673   -0.238978    0.240389
H      -0.616199   -0.283980    2.026563
H       1.590645   -3.904124    2.065547
