16

O       0.019141    1.395834   -0.211142
C      -0.090656    0.029123   -0.100348
C      -0.348590   -0.662207    1.188999
C      -1.465687   -0.652068    0.139306
C      -2.620250    0.227301    0.337106
N      -2.534174    1.378566    0.871598
O      -3.794642   -0.349856   -0.128648
C      -4.690784    0.423537   -0.815300
O      -5.771873    0.022593   -1.104690
H      -0.713020    1.789857    0.299433
H       0.537731   -0.471121   -0.830432
H       0.121433   -1.619391    1.386346
H      -0.522476   -0.038139    2.059200
H      -1.681463   -1.571314   -0.388880
H      -3.423214    1.861730    0.970398
H      -4.278621    1.411800   -1.078838
