14

N      -0.296836    1.309965   -0.153610
C      -0.136992    0.060244   -0.116452
O       1.084275   -0.526787   -0.384333
C       1.247037   -1.857678   -0.719326
O       2.353821   -2.297691   -0.769250
C      -0.004779   -2.639441   -1.080273
C      -1.201585   -2.231124   -0.262745
O      -0.925576   -1.946710    1.105690
C      -1.253576   -0.851248    0.238827
H       0.564254    1.779491   -0.440332
H      -0.210110   -2.478591   -2.146986
H       0.233475   -3.697796   -0.952202
H      -2.134879   -2.759093   -0.449979
H      -2.195496   -0.349414    0.433926
