16

O       2.702173    1.174316    1.613910
C       1.965920    1.192601    0.661740
C       1.066145    2.364468    0.313603
C       1.176782    2.818101   -1.134626
C       0.201010    3.916225   -1.558074
C      -1.196428    3.544944   -1.335769
N      -2.294047    3.241369   -1.141785
C       2.439107    2.700331   -1.878136
O       1.356464    1.788198   -2.105993
H       1.883080    0.328301   -0.028707
H       0.029675    2.044701    0.495984
H       1.285128    3.191521    0.996012
H       0.411061    4.836775   -1.000711
H       0.344932    4.133054   -2.620909
H       2.653368    3.382281   -2.699299
H       3.314641    2.276757   -1.388519
