19

C       0.059594    1.556199    0.042152
C      -0.034863    0.030162   -0.026594
C       0.678730   -0.553176   -1.251428
O       2.067115   -0.205283   -1.217886
C       2.841926   -1.343145   -1.258414
O       4.039575   -1.304503   -1.233265
C       1.922897   -2.497189   -1.337062
C       0.659899   -2.063303   -1.340230
C      -0.606905   -2.846485   -1.423230
H       1.103720    1.876459    0.073402
H      -0.409982    2.021120   -0.831713
H      -0.444519    1.936663    0.935082
H       0.403544   -0.420701    0.871548
H      -1.085973   -0.281236   -0.061910
H       0.248366   -0.112467   -2.163847
H       2.282802   -3.514764   -1.388018
H      -0.408554   -3.913028   -1.548991
H      -1.212692   -2.715347   -0.518826
H      -1.222762   -2.507805   -2.265078
