16

C       0.431748    1.403223   -0.206684
C      -0.123359    0.036565    0.156566
O       0.068687   -0.910526   -0.942086
C       1.200557   -1.647710   -0.773522
N       1.720886   -2.442037   -1.603768
C       1.722667   -1.367841    0.615967
O       2.813717   -1.581475    1.072962
C       0.603487   -0.638130    1.339790
O       1.066479    0.224196    2.334022
H       1.512218    1.359688   -0.377913
H      -0.050346    1.774684   -1.114187
H       0.249172    2.104726    0.610500
H      -1.203144    0.084446    0.308324
H       1.184474   -2.463545   -2.474552
H      -0.066238   -1.412448    1.755824
H       1.966943   -0.065957    2.544462
