18

C      -0.221617    1.505258   -0.021487
C       0.031078    0.014184   -0.077366
N      -0.159148   -0.590433   -1.178258
C       0.027645   -2.014212   -1.357050
C       1.192687   -2.651454   -0.595653
N       0.940432   -2.764957    0.830269
C       0.754827   -1.735519    1.702810
O       0.845235   -1.861542    2.910798
N       0.452546   -0.474377    1.167588
H       0.681067    2.045323    0.285978
H      -0.529830    1.848926   -1.007042
H      -1.009575    1.740161    0.703820
H      -0.897031   -2.544774   -1.090352
H       0.186856   -2.187222   -2.428369
H       1.349081   -3.666310   -0.971632
H       2.112437   -2.084413   -0.797945
H       1.225254   -3.608933    1.300901
H       0.424851    0.195918    1.922189
