23

C       0.082853    1.449331   -0.874014
C      -0.417606    0.012608   -1.055358
C      -1.108717   -0.562262    0.196596
C      -2.512701    0.034647    0.402349
C      -1.176118   -2.088585    0.199799
C      -1.636312   -2.730614    1.509979
O      -1.432003   -4.124381    1.517590
C      -1.311725   -2.876197   -1.032141
O      -0.043411   -2.788994   -0.353266
H       0.578952    1.804630   -1.782416
H      -0.731131    2.147193   -0.652781
H       0.807043    1.513231   -0.054265
H      -1.112411   -0.022964   -1.904673
H       0.427612   -0.633575   -1.310837
H      -0.493026   -0.284849    1.065789
H      -2.956635   -0.267815    1.354914
H      -2.474666    1.127236    0.396269
H      -3.189394   -0.281077   -0.399812
H      -1.102571   -2.239194    2.342068
H      -2.706759   -2.560632    1.662977
H      -0.556073   -4.255299    1.128596
H      -1.784758   -3.853691   -0.982176
H      -1.343513   -2.379995   -1.998818
