20

C       0.202976    1.418422    0.032333
O       1.046858    0.327069   -0.360981
C      -0.263002    0.031573    0.117970
C      -0.365063   -0.705320    1.425618
C       0.507295   -1.933053    1.598187
C       0.798982   -0.660733    2.366807
N      -1.716031   -0.594600    1.936445
C      -2.672693   -1.645301    1.586600
C      -2.187002   -1.487902    2.984260
H       0.504579    1.933106    0.942361
H      -0.136251    2.057382   -0.781015
H      -0.951441   -0.321962   -0.652031
H       0.125515   -2.787790    2.145589
H       1.171276   -2.186381    0.779182
H       1.667786   -0.084631    2.070395
H       0.575530   -0.649982    3.428097
H      -3.664759   -1.307441    1.301559
H      -2.299132   -2.505205    1.033868
H      -1.521617   -2.257188    3.369285
H      -2.814424   -1.020688    3.738166
