22

C      -0.276379    1.466658    0.086868
C      -0.013530   -0.036630   -0.032389
C       0.840024   -0.574652    1.111299
N       0.187186   -0.605826    2.455073
C       0.557977   -2.032726    2.698729
C      -0.577210   -2.950633    3.140136
C      -1.070269   -2.637414    4.555049
C       1.011277   -2.098586    1.230374
O       1.305523   -2.977397    0.475454
H       0.658548    2.037999    0.057748
H      -0.911009    1.823440   -0.729843
H      -0.782546    1.694378    1.030343
H      -0.964905   -0.580432   -0.042663
H       0.496934   -0.266122   -0.975483
H       1.824435   -0.078950    1.110807
H       0.590595    0.041570    3.121391
H       1.422871   -2.154880    3.370906
H      -1.403848   -2.849601    2.427814
H      -0.222701   -3.986356    3.074807
H      -0.271785   -2.771419    5.293853
H      -1.420241   -1.602243    4.619431
H      -1.900397   -3.291269    4.838640
