15

C      -0.158272    1.593509    0.019544
C      -0.017285    0.088778   -0.056085
C       0.908734   -0.589834   -1.063922
C       2.151351   -0.226728   -0.174878
N       1.029369   -0.548459    0.875893
C       1.059561   -1.796247   -0.070406
C       2.572645   -1.688078   -0.154464
O       3.546486   -2.370110   -0.223662
H       0.795618    2.108843   -0.125256
H      -0.854431    1.949322   -0.747572
H      -0.558154    1.885516    0.996068
H      -0.993790   -0.393203    0.075582
H       0.875107   -0.639640   -2.156791
H       2.718163    0.700131   -0.138453
H       0.371671   -2.626362    0.079860
