17

N       0.030650    1.211456    0.491924
C       0.066510   -0.026083   -0.077807
O       1.038055   -0.489634   -0.640584
C      -1.264586   -0.779508   -0.004197
C      -1.193877   -2.336228    0.000965
C      -2.041564   -2.372726    1.314902
C      -1.970707   -0.861077    1.337802
N      -2.261588    0.073979    2.141012
O      -2.858134   -0.414115    3.314778
H       0.903125    1.711629    0.559139
H      -0.704851    1.433119    1.148232
H      -1.913052   -0.375774   -0.790658
H      -1.644526   -2.825729   -0.862482
H      -0.170105   -2.692908    0.115959
H      -3.059450   -2.756697    1.197616
H      -1.590822   -2.867354    2.179529
H      -3.022149    0.392024    3.816085
