23

C       0.039437    1.572601    0.076622
C       0.040353    0.072689    0.005959
C      -0.929266   -0.792903    0.760604
C       0.547063   -0.970786    1.009474
C       1.210094   -1.776944   -0.116475
C       0.874411   -3.258596   -0.258395
C       1.557198   -3.908092   -1.455521
O       1.172050   -5.274882   -1.495190
C       0.636349   -0.744886   -1.152772
H       1.030435    1.985336   -0.146676
H      -0.667119    2.005244   -0.642894
H      -0.251569    1.922557    1.072766
H      -1.466046   -0.293592    1.561972
H      -1.513312   -1.557920    0.253717
H       0.971236   -0.817837    1.996131
H       2.298441   -1.659674   -0.060288
H       1.178496   -3.796276    0.648531
H      -0.207696   -3.402350   -0.357975
H       1.264487   -3.386503   -2.381598
H       2.651224   -3.805982   -1.359148
H       1.592822   -5.683310   -2.257204
H      -0.088201   -1.133458   -1.877997
H       1.421230   -0.215549   -1.699388
