16

O      -0.062855    1.390646   -0.012607
C       0.019741   -0.018013    0.016192
C       0.655738   -0.602038    1.313530
C      -0.019246   -1.974425    1.524606
C      -1.392887   -1.788971    0.906669
O      -2.017500   -0.552940    1.288576
C      -1.385000   -0.623784    0.016406
C       0.737538   -0.514729   -1.181790
N       1.314841   -0.893010   -2.109087
H       0.830437    1.752811    0.001752
H       1.743865   -0.662170    1.251561
H       0.385163    0.085118    2.116995
H       0.511565   -2.769590    0.989209
H      -0.065391   -2.257169    2.580103
H      -2.066991   -2.627802    0.759705
H      -2.019335   -0.502098   -0.856130
