15

N       0.016744    1.446136    0.166487
C       0.005452    0.044381    0.035073
C      -1.132220   -0.684565    0.000269
O      -1.115285   -2.052126   -0.020353
C       0.032032   -2.778393   -0.052412
O      -0.015604   -3.989743   -0.060680
C       1.289634   -2.013503   -0.057417
N       2.410407   -2.802307   -0.154145
C       1.258240   -0.654003    0.008428
H       0.699276    1.887799   -0.437572
H      -0.890362    1.865193    0.005404
H      -2.140053   -0.294163    0.008842
H       2.231889   -3.776173    0.049253
H       3.278537   -2.432463    0.197799
H       2.179679   -0.079743    0.046746
