23

C      -2.853997    1.186881   -1.709162
C      -2.231485   -0.207166   -1.668605
O      -1.124634   -0.201394   -2.562526
C      -1.828606   -0.610246   -0.239479
C      -1.619318   -2.106924   -0.012969
C      -0.763833   -2.836500   -1.029994
O       0.486919   -2.186464   -1.273981
C      -1.539333   -2.581078    1.423777
C      -2.749844   -2.909490    0.585233
H      -3.042815    1.476655   -2.746365
H      -3.801679    1.214988   -1.161252
H      -2.172242    1.924009   -1.271460
H      -2.984014   -0.931065   -2.028866
H      -0.404657   -0.729673   -2.189623
H      -0.914644   -0.055720    0.014628
H      -2.597871   -0.265429    0.461155
H      -0.602771   -3.875892   -0.709496
H      -1.258172   -2.862643   -2.005747
H       0.913904   -2.036805   -0.423175
H      -0.856411   -3.389445    1.667078
H      -1.647610   -1.840842    2.209562
H      -3.678643   -2.391976    0.799494
H      -2.881636   -3.937174    0.262005
