18

C      -0.279696    1.482851    0.130894
N       0.094462    0.081523   -0.000347
C       0.592931   -0.460565   -1.257300
C       2.095916   -0.271885   -1.449045
C       2.834241    0.773923   -0.635250
C       2.366289    0.524139    0.810269
O       2.761691    1.088129    1.797375
C       1.254286   -0.525577    0.733394
C       1.564423   -1.358227   -0.532994
H       0.477935    2.212048   -0.194670
H      -1.183202    1.651617   -0.464685
H      -0.524604    1.689743    1.177069
H      -0.079107   -0.666916   -2.084286
H       2.491439   -0.578149   -2.411550
H       3.917795    0.614542   -0.685061
H       2.651270    1.815094   -0.919618
H       1.000284   -0.996193    1.683374
H       1.742388   -2.420983   -0.602024
