15

C      -0.008697    1.508401    0.205240
N       1.313172    1.964075   -0.231548
C       2.335396    1.154651   -0.661592
N       2.328128   -0.126220   -0.761731
C       1.115695   -0.689134   -0.373564
C       0.030877    0.025084    0.072162
N      -0.940719   -0.908928    0.343480
C      -0.395532   -2.132596    0.049930
N       0.838941   -2.036883   -0.383672
H      -0.205610    1.835060    1.242408
H      -0.799224    1.967721   -0.415462
H       1.486924    2.954515   -0.213967
H       3.232342    1.706984   -0.938076
H      -1.869506   -0.738489    0.691462
H      -0.954181   -3.047913    0.175674
