18

C      -0.183721    1.518479   -0.044663
C       0.011666    0.008591   -0.046425
C       1.219235   -0.490889   -0.883480
N       2.009592   -0.605279    0.365499
C       0.780495   -0.590986    1.198745
C       0.893932    0.209549    2.493948
C       0.284850   -1.948675    1.492395
N      -0.074840   -3.026575    1.710359
H       0.761628    2.045604    0.113681
H      -0.585758    1.838862   -1.011550
H      -0.889693    1.835760    0.729285
H      -0.932053   -0.497071   -0.255379
H       1.019340   -1.445016   -1.386926
H       1.639911    0.214111   -1.607965
H       2.591231   -1.431723    0.457004
H       1.267028    1.211844    2.278645
H      -0.074628    0.282801    2.997751
H       1.595244   -0.278473    3.177395
