16

C       0.423839   -0.880169   -1.242881
N      -0.276125   -0.565212   -0.005204
C       0.491887   -0.760939    1.208559
C       1.814090   -0.107090    1.250960
C       2.873633    0.462265    1.254127
C      -0.317897   -0.210033    2.404952
O      -1.205154    0.595710    2.252427
C       0.075577   -0.707523    3.705620
C       0.392925   -1.152708    4.777644
H       0.675802   -1.946883   -1.260261
H      -0.246828   -0.684646   -2.083845
H       1.354751   -0.312140   -1.395763
H      -0.643716    0.379965   -0.008292
H       0.637484   -1.838341    1.372172
H       3.814388    0.955642    1.261505
H       0.667495   -1.534612    5.731120
