20

C      -0.027547    1.455309   -0.114229
C      -0.165149   -0.061895   -0.057853
O       0.824797   -0.657357    0.786660
C      -1.563822   -0.505603    0.384481
N      -1.611819   -1.950523    0.496745
C      -2.656767   -2.700752    0.085182
O      -3.688777   -2.239578   -0.385186
C      -2.506356   -4.219891    0.232013
O      -3.657854   -4.855289   -0.236747
H       0.985694    1.732177   -0.416097
H      -0.734253    1.888542   -0.828781
H      -0.229491    1.903669    0.866773
H       0.034207   -0.488877   -1.047523
H       0.811933   -0.188968    1.629628
H      -1.808994   -0.031719    1.347988
H      -2.327501   -0.198026   -0.333723
H      -0.775158   -2.392035    0.849051
H      -1.614962   -4.545604   -0.328140
H      -2.322259   -4.458114    1.292279
H      -4.232366   -4.123696   -0.522865
