14

C      -0.033927    1.554009   -0.026666
C       0.038444    0.035310   -0.007722
O       0.819501   -0.469241   -1.109907
C       1.846024   -1.240246   -0.653327
N       2.718264   -1.842616   -1.333632
N       1.782507   -1.257162    0.736270
C       0.739982   -0.515650    1.237306
O       0.446019   -0.331463    2.391029
H       0.968546    1.989749    0.005482
H      -0.540018    1.901601   -0.930224
H      -0.591906    1.894222    0.849587
H      -0.965306   -0.400670   -0.075076
H       2.567376   -1.687000   -2.328078
H       2.455578   -1.756480    1.295557
