21

C      -0.237713    1.403387   -0.040412
N       0.086621   -0.013422   -0.001249
C       0.711342   -0.490146    1.223067
C      -0.171690   -0.460870    2.484161
C       1.221653   -1.922592    0.968041
O       0.106023   -2.727526    0.658080
C       0.389770   -4.111556    0.547017
C       2.227859   -1.948551   -0.118863
N       3.039791   -2.016910   -0.938024
H       0.681334    1.989766    0.072394
H      -0.663287    1.645218   -1.018551
H      -0.949299    1.745597    0.730149
H      -0.724523   -0.583639   -0.211184
H       1.599176    0.131575    1.397798
H       0.389239   -0.778230    3.370102
H      -0.538855    0.551240    2.672310
H      -1.030587   -1.126982    2.366039
H       1.719823   -2.296984    1.877704
H       0.809147   -4.508320    1.483273
H      -0.558570   -4.610672    0.339632
H       1.092867   -4.315308   -0.270814
