25

C      -0.034606    1.563356   -0.056934
C       0.036695    0.034417    0.061778
C       0.830598   -0.368943    1.312412
C      -1.378697   -0.572866    0.026045
C      -1.459138   -2.094160   -0.072961
C      -1.300363   -2.989535    1.194648
C      -2.424497   -3.891617    0.654531
O      -3.310502   -4.360566    1.645359
C      -2.867657   -2.726863   -0.271309
H       0.966410    2.006981   -0.080239
H      -0.560174    1.870888   -0.967258
H      -0.568261    1.997357    0.797426
H       0.578788   -0.344233   -0.817619
H       0.316092   -0.041278    2.223961
H       0.970404   -1.450786    1.380082
H       1.823179    0.094204    1.309689
H      -1.940383   -0.239194    0.911143
H      -1.907674   -0.151724   -0.840661
H      -0.783362   -2.445005   -0.862645
H      -0.331822   -3.448625    1.404092
H      -1.651255   -2.469077    2.091477
H      -2.012791   -4.724157    0.064991
H      -3.977024   -4.909353    1.219906
H      -3.637394   -2.131786    0.231637
H      -3.196197   -2.957624   -1.288505
