17

O       0.005021    1.412118   -0.092989
C       1.318544    1.910719    0.004833
C       2.023381    1.790982    1.343113
C       1.301063    1.345030    2.550083
C       0.549303    0.240841    2.553139
C       0.397049   -0.599157    1.349695
C       0.023861    0.007630    0.010172
C       1.432932   -0.466659    0.212012
C       2.277570    0.774958    0.208413
H       1.498513    2.766268   -0.637772
H       2.814969    2.517982    1.497505
H       1.412619    1.940284    3.450402
H       0.038897   -0.078001    3.455983
H       0.011586   -1.601761    1.508396
H      -0.707551   -0.476402   -0.628619
H       1.825896   -1.364198   -0.246802
H       3.255521    0.737341   -0.252784
