12

O      -0.025959    0.019584    0.004497
C      -0.013501    1.219712    0.011136
C      -1.274133    2.103315    0.032293
N      -0.734709    3.444411    0.031404
C       0.633217    3.556978    0.014018
O       1.252974    4.595056    0.010497
C       1.200501    2.137287   -0.001138
H      -1.893537    1.883037   -0.846942
H      -1.869617    1.874580    0.925790
H      -1.303222    4.276539    0.043463
H       1.840819    1.960612    0.868466
H       1.816487    1.969473   -0.889863
