19

C      -0.168881    1.464698    0.109935
C       0.105310    0.000411    0.023997
O      -0.788926   -0.897081    0.732390
C       0.641199   -0.982522    0.960188
C       1.305009   -1.800761   -0.171695
C       0.340948   -2.207327   -1.262940
O      -0.919639   -2.765409   -1.125554
C       0.750492   -0.756599   -1.192068
C       1.469804   -0.021019   -2.287477
H       0.711961    2.044253   -0.182807
H      -0.993425    1.746917   -0.554553
H      -0.443922    1.736145    1.132390
H       0.975071   -0.893409    1.987357
H       2.312741   -2.191630   -0.091570
H       0.864003   -2.712663   -2.074100
H      -1.330816   -2.292227   -0.388777
H       0.767979    0.518152   -2.935386
H       2.185680    0.710011   -1.892222
H       2.029225   -0.719277   -2.918076
