21

C      -0.152844    1.611740    0.009312
C      -0.084470    0.082693   -0.011787
C       0.746636   -0.452467   -1.184059
C       0.856538   -1.987083   -1.236380
C       1.461235   -2.542799   -2.546743
C       2.551618   -3.481358   -2.099407
C       2.713463   -3.499734   -0.771922
C       1.750995   -2.579372   -0.124712
O       1.676989   -2.331452    1.058979
H       0.845231    2.051351    0.116730
H      -0.588841    2.006583   -0.915897
H      -0.763386    1.970329    0.843784
H       0.335135   -0.292879    0.925260
H      -1.100699   -0.329150   -0.080922
H       0.304376   -0.105742   -2.128006
H       1.757417   -0.022339   -1.147679
H      -0.145238   -2.410723   -1.086218
H       0.722112   -3.056896   -3.172721
H       1.880469   -1.743258   -3.172241
H       3.135881   -4.058734   -2.808790
H       3.437984   -4.071054   -0.205901
