15

N       0.025696   -1.190560   -0.165383
C      -0.009771   -0.035889   -0.146613
C      -0.027970    1.423831   -0.112782
C       1.377343    2.013764    0.166449
C       1.355986    3.503739    0.205513
C       1.674367    4.424487    1.155144
C       1.412323    5.665634    0.514922
N       0.971943    5.511131   -0.708087
O       0.935599    4.131945   -0.909570
H      -0.403890    1.800420   -1.069003
H      -0.732852    1.751689    0.658672
H       1.755556    1.639491    1.120498
H       2.066814    1.670988   -0.612685
H       2.040279    4.248114    2.152650
H       1.530026    6.666529    0.905796
