19

C      -0.017132    1.526369    0.037240
C       1.309648    0.813993   -0.054217
C       0.010944    0.020201   -0.045565
C       0.162825   -0.658913   -1.422381
O       1.573871   -1.092046   -1.377518
C       1.831401    0.360953   -1.433498
C       0.628389    0.443928   -2.377665
C       0.669238    0.360843   -3.864617
C      -0.033646    1.518313   -3.176102
H      -0.260327    1.934902    1.014032
H      -0.385358    2.119822   -0.787964
H       1.992160    0.812136    0.786628
H      -0.290469   -0.583049    0.801835
H      -0.533833   -1.447796   -1.705691
H       2.848376    0.619477   -1.728222
H       1.610369    0.561782   -4.366476
H       0.056406   -0.388065   -4.356085
H      -1.118754    1.547099   -3.205951
H       0.435238    2.496939   -3.216344
