16

N       0.232485    1.219462    0.728723
C       0.120949    0.241716   -0.200769
O       0.905311    0.029511   -1.106545
C      -1.113532   -0.641324   -0.034638
C      -0.918033   -1.991970    0.681761
C      -1.948802   -1.450250    1.690348
O      -2.039222   -0.176495    0.987809
C      -1.865256   -0.721536   -1.366922
O      -2.161994   -1.749866   -1.910541
H       0.984190    1.884723    0.654318
H      -0.525807    1.368970    1.374656
H      -1.236559   -2.842216    0.079741
H       0.084014   -2.160706    1.074427
H      -2.915640   -1.962613    1.704521
H      -1.595891   -1.308978    2.716639
H      -2.173038    0.267588   -1.767149
