15

N      -0.202423    1.325917   -0.418320
C      -0.101069   -0.011799   -0.104720
C      -1.073126   -0.969570   -0.006767
C      -2.561077   -0.939729   -0.099954
C      -2.918337   -0.278418   -1.423028
O      -3.123837    0.904885   -1.536247
O      -0.428934   -2.172481    0.235933
C       0.872566   -1.850485    0.291473
N       1.140363   -0.598316    0.099729
H       0.529465    1.900523   -0.029282
H      -1.126804    1.726042   -0.356835
H      -2.943770   -1.963825   -0.066793
H      -3.016855   -0.361387    0.713306
H      -2.909556   -0.950382   -2.307615
H       1.566984   -2.652419    0.488183
