20

C      -0.073089    1.591033    0.066964
C       0.026636    0.065305    0.046510
C      -1.378194   -0.557174   -0.057420
N       0.891601   -0.395735   -1.045858
C       1.634979   -1.516501   -0.772285
O       2.305882   -2.140633   -1.563599
C       1.436130   -1.804619    0.720746
C       0.800835   -0.521104    1.277303
O       1.776653    0.366946    1.793832
H       0.911960    2.056068    0.121308
H      -0.581573    1.952466   -0.833731
H      -0.651178    1.923714    0.933933
H      -1.862075   -0.256100   -0.992323
H      -1.336565   -1.650288   -0.041325
H      -2.012389   -0.225457    0.770961
H       0.754378   -0.111471   -2.004611
H       0.776166   -2.673070    0.816760
H       2.377101   -2.050721    1.216004
H       0.114213   -0.704067    2.107149
H       2.465861    0.475640    1.128297
