14

O      -0.044195    1.465713   -0.086877
C       0.048254    0.067743   -0.048236
C       0.056017   -0.615049    1.336887
C      -1.474694   -0.366020    1.537340
O      -1.778538   -1.750038    1.850923
C      -0.766334   -1.831474    0.812668
C      -1.328905   -0.617032   -0.014779
C      -2.362302   -0.631832   -1.009449
N      -3.188890   -0.646244   -1.818087
H       0.843031    1.836597   -0.115525
H       0.753189   -0.328248   -0.789417
H       0.816119   -0.634677    2.114728
H      -2.008105    0.429459    2.050611
H      -0.447525   -2.807502    0.452908
