18

C      -0.379492    1.260756   -0.304267
O       0.714182    1.436331    0.596138
C       0.299130    0.100589    0.291320
C      -0.308552   -0.674204    1.396256
C      -1.055281   -0.128732    2.602272
C      -0.688166   -1.480477    3.240432
C      -1.469518   -2.554462    2.457443
C      -0.557613   -2.150834    1.313367
N       0.506930   -1.628875    2.238710
H      -1.352153    1.568280    0.077317
H      -0.183511    1.524669   -1.342546
H       1.005050   -0.457335   -0.325217
H      -0.495005    0.698016    3.043446
H      -2.114605    0.135701    2.514456
H      -0.501316   -1.573677    4.307988
H      -1.227502   -3.561251    2.806939
H      -2.554300   -2.444026    2.355439
H      -0.297240   -2.725704    0.430949
