22

C      -0.026628    1.571231    0.025539
C       0.015463    0.041352   -0.013015
C       0.723705   -0.489797   -1.264310
C       0.644522   -2.015581   -1.343818
C       1.510702   -2.587708   -2.467178
N       1.044107   -2.602167   -0.065643
C       0.974724   -2.037457    1.180349
O       1.168533   -2.692555    2.188358
C       0.707758   -0.536920    1.228480
H       0.986275    1.991063    0.019754
H      -0.561346    1.976051   -0.840154
H      -0.529250    1.930638    0.929427
H      -1.020304   -0.328604   -0.032091
H       0.278419   -0.067928   -2.172102
H       1.777780   -0.179250   -1.247678
H      -0.404515   -2.285080   -1.552581
H       2.563384   -2.330578   -2.312799
H       1.429425   -3.679303   -2.512035
H       1.192039   -2.190784   -3.435880
H       1.192367   -3.602078   -0.039865
H       1.683862   -0.050055    1.364335
H       0.140278   -0.343942    2.142743
