18

C       0.383320    1.553616   -0.528925
C       1.392643    2.210389    0.471000
C       2.184345    1.160945    1.095692
C       2.481608    0.074267    1.523149
C       2.452660   -1.344428    1.850557
C       1.077334   -1.909850    1.374871
N       0.986392   -1.832615   -0.074992
C       0.551677   -0.799156   -0.647319
O      -0.060008    0.280603   -0.067687
H      -0.498159    2.191937   -0.636125
H       0.857289    1.445294   -1.512414
H       1.991273    2.949891   -0.073579
H       0.837143    2.761693    1.239132
H       3.262505   -1.890608    1.353528
H       2.554181   -1.520651    2.927493
H       1.017842   -2.963866    1.664243
H       0.280514   -1.360589    1.888796
H       0.603370   -0.727993   -1.738422
