16

O      -0.345128    0.606803    0.843964
C       0.223175    0.932821   -0.167195
C       1.412242    1.827028   -0.204059
N       2.272059    1.667546   -1.410050
C       1.522136    2.889441   -1.248549
C       0.533931    3.416958   -2.322747
C       1.164282    4.805024   -2.105968
O       0.989262    5.139053   -0.725709
C       2.088461    4.291250   -1.077722
H      -0.104605    0.585763   -1.172139
H       1.871101    2.025912    0.761113
H       3.250109    1.790974   -1.157008
H       0.750218    2.980867   -3.300782
H      -0.534307    3.356455   -2.105718
H       1.282307    5.620600   -2.808774
H       3.084890    4.598586   -0.778569
