18

C      -0.057253    1.564003    0.016707
C       0.030600    0.056532    0.000312
C      -0.814034   -0.790187    0.937637
C       0.684333   -0.773495    1.095354
C       1.478615   -1.906753    0.425062
C       1.150216   -1.731611   -1.056239
C       0.388825   -0.657769   -1.263775
C       2.920488   -1.811377    0.682432
N       4.055597   -1.732675    0.885832
H       0.872588    2.020787   -0.338485
H      -0.872070    1.918583   -0.624971
H      -0.249051    1.935084    1.027929
H      -1.383252   -0.272321    1.703491
H      -1.294775   -1.677229    0.537895
H       1.108448   -0.304475    1.974466
H       1.152019   -2.890369    0.788581
H       1.498873   -2.432825   -1.803625
H       0.026822   -0.332348   -2.233164
