15

O      -0.161232    0.067245   -0.305435
C      -0.071927    1.253820   -0.255522
O       1.027046    1.881876    0.223460
C       1.053166    3.291959    0.202285
C       1.933695    3.914063    1.292763
O       2.713665    4.630579    0.312234
C       2.047181    3.972837   -0.795700
C       2.898911    3.091467   -1.570428
C       3.590691    2.358786   -2.224577
H      -0.862420    1.960427   -0.575423
H       0.039105    3.696815    0.136009
H       1.440626    4.586772    2.001620
H       2.527160    3.168830    1.834357
H       1.573771    4.714156   -1.451708
H       4.205448    1.708096   -2.796849
