16

N       0.090590   -1.089356   -0.034997
C       0.061111    0.067682   -0.000833
C      -0.006104    1.494771    0.040533
N       0.321372    2.302192   -1.169068
C       1.188678    2.390020    0.017717
C       0.745018    3.419689    1.092374
C      -0.729413    3.718053    0.718952
C      -0.854765    2.230535    1.128217
N       0.170071    2.549311    2.182662
H       0.757250    1.695190   -1.863809
H       2.204504    2.013539   -0.021176
H       1.461495    4.187832    1.380627
H      -1.195577    4.359882    1.463602
H      -0.968826    4.007585   -0.299431
H      -1.784491    1.756983    1.439009
H       0.765101    1.750091    2.412838
