21

C      -0.001475    1.546461    0.054220
C      -0.013426    0.043977   -0.024640
C      -0.044690   -0.610457   -1.188245
C      -0.022776   -2.109062   -1.332361
C       0.412737   -2.812213   -0.026693
C      -0.324892   -2.178940    1.172467
C       0.021601   -0.690712    1.297363
C       0.207113   -4.254712   -0.098255
C       0.015668   -5.440311   -0.160275
H       0.881144    1.906683    0.599270
H       0.003098    2.005088   -0.938184
H      -0.876002    1.922537    0.601097
H      -0.085207   -0.040737   -2.114839
H      -1.014724   -2.479640   -1.627301
H       0.652057   -2.399779   -2.146228
H       1.487621   -2.624678    0.109496
H      -1.403853   -2.300900    1.020198
H      -0.071628   -2.711781    2.093709
H       1.018078   -0.570675    1.749719
H      -0.671263   -0.209259    2.000322
H      -0.142096   -6.488835   -0.213584
