15

C       0.258183    1.515070   -0.130040
C      -0.041718    0.056267    0.104158
O       0.687288   -0.829019   -0.825423
C       1.345847   -1.459548    0.192591
N       2.237776   -2.334492    0.226498
C       0.671176   -0.650596    1.303356
O       1.529212    0.185859    2.029020
C      -0.221281   -1.420706    2.180301
N      -0.927378   -2.017776    2.872849
H       1.326233    1.715681   -0.034377
H      -0.076161    1.800850   -1.131193
H      -0.277377    2.126402    0.602236
H      -1.108801   -0.168398    0.046583
H       2.526392   -2.638240   -0.704422
H       2.259308   -0.356707    2.353723
