18

C      -0.123979    1.397733    0.111872
O      -0.065054   -0.004205   -0.078529
C      -1.325689   -0.656569   -0.042307
C      -1.133083   -2.042532   -0.661713
N      -0.396333   -2.991521    0.167373
C      -0.486784   -2.831570    1.420847
N      -1.205227   -1.831532    2.072369
C      -1.792161   -0.765997    1.402998
N      -2.579136    0.103976    1.902880
H       0.902692    1.764938    0.042326
H      -0.731863    1.879346   -0.668725
H      -0.545060    1.668000    1.087855
H      -2.076169   -0.078450   -0.597092
H      -2.116918   -2.475434   -0.893129
H      -0.603881   -1.921140   -1.611471
H       0.012189   -3.522867    2.099080
H      -1.294582   -1.876860    3.076452
H      -2.759357   -0.073341    2.895340
