21

O       0.107513    1.483159   -0.108157
C      -0.044312    0.089028    0.008162
C       0.219685   -0.662675    1.349703
C      -0.368797    0.123045    2.529833
C      -1.824959    0.547040    2.198587
C      -2.393537   -0.421274    1.153935
C      -2.100644   -1.879623    1.613126
C      -0.780502   -1.771961    0.833750
C      -1.396996   -0.639532   -0.057504
H      -0.491473    1.912428    0.508121
H       0.598822   -0.329558   -0.773469
H       1.246157   -0.978654    1.548911
H      -0.350963   -0.501273    3.428897
H       0.255817    0.995659    2.748343
H      -2.447063    0.530120    3.100729
H      -1.873504    1.579946    1.830334
H      -3.423931   -0.177013    0.887316
H      -2.078040   -2.080904    2.689758
H      -2.769172   -2.601877    1.135517
H      -0.304295   -2.660781    0.418249
H      -1.877886   -0.824321   -1.019680
