18

C      -0.089664    1.575985   -0.016619
C       0.003172    0.044931    0.022309
C       0.908446   -0.562630   -1.130266
N       1.996723   -1.364110   -0.533349
C       1.824615   -1.283447    0.723028
O       2.542911   -1.824444    1.728463
C       1.915562   -1.414346    2.964005
C       0.729267   -0.558725    2.561987
C       0.704095   -0.501897    1.231138
H       0.905228    2.027582    0.052262
H      -0.548748    1.910240   -0.952420
H      -0.693389    1.959848    0.811760
H      -1.009055   -0.369709   -0.047605
H       0.322223   -1.193712   -1.807859
H       1.342611    0.236927   -1.743485
H       1.627076   -2.314183    3.522884
H       2.655305   -0.868767    3.564275
H       0.065898   -0.109111    3.289106
