17

O       0.008904    0.105863   -0.670713
C      -0.044588    1.225945   -0.249829
C      -1.181790    2.168019    0.231143
O      -1.383208    2.024433    1.655303
C      -0.507940    3.143367    1.944859
C      -0.105786    3.283138    0.466821
C       0.980281    2.301054    0.008401
C       2.399201    2.102043    0.488668
C       2.156771    2.561926   -0.912596
H      -2.111147    2.253783   -0.337188
H      -1.079794    3.990940    2.341937
H       0.288886    2.878071    2.648780
H      -0.135178    4.265979    0.000401
H       2.781427    2.819300    1.207423
H       2.715919    1.076826    0.648299
H       2.300246    1.853842   -1.721880
H       2.364972    3.597121   -1.161232
