12

O      -0.066525    0.109208   -0.074839
C       0.037546    1.286344    0.018474
O      -0.982135    2.209951    0.227809
C      -0.036769    3.314395    0.046100
C       0.966300    3.252309    1.148514
C       1.121150    2.328513   -0.061041
C      -0.416150    4.424648   -0.745582
C      -0.739529    5.377104   -1.403661
H       1.687339    4.062522    1.183029
H       0.661376    2.849395    2.108670
H       1.989276    2.325407   -0.703026
H      -1.028988    6.214565   -1.989845
