21

C      -0.170468    1.614164   -0.052419
C      -0.167219    0.080601   -0.071479
C       0.726226   -0.500533   -1.150173
C       0.285194   -0.350072   -2.635772
C       0.500563   -1.872804   -2.871943
C       0.908397   -2.060585   -1.375421
C       2.409150   -1.876648   -1.159352
O       3.339849   -2.629870   -1.125081
C       2.268703   -0.355942   -0.952855
H       0.832937    2.010771    0.135988
H      -0.513341    2.022135   -1.009317
H      -0.832890    1.997898    0.729221
H       0.154317   -0.298628    0.908046
H      -1.192023   -0.285190   -0.218530
H      -0.760591   -0.047845   -2.740569
H       0.893521    0.324013   -3.244905
H      -0.415064   -2.410006   -3.125788
H       1.267133   -2.150052   -3.599571
H       0.403671   -2.844122   -0.807494
H       2.818262    0.280467   -1.652898
H       2.553991   -0.069487    0.066166
