19

O       0.446617    1.082351   -0.513322
C       0.174663   -0.208922   -0.027910
C       0.338042   -0.504307    1.500691
C      -0.136168    0.611308    2.442691
O      -1.506697    0.145333    2.405896
C      -1.148335   -0.968843    1.555768
C      -1.297433   -0.661343    0.069122
C      -2.477275   -0.008763   -0.591895
C      -2.090878   -1.419270   -0.955613
H      -0.230743    1.675198   -0.169690
H       0.790181   -0.884989   -0.629209
H       1.192638   -1.103993    1.808684
H       0.275130    0.554106    3.457563
H      -0.026700    1.641863    2.080133
H      -1.513201   -1.923921    1.942469
H      -3.363785    0.154306    0.011072
H      -2.270460    0.773035   -1.316583
H      -1.631924   -1.591752   -1.924267
H      -2.722596   -2.230609   -0.607525
