17

C      -0.016582    1.572283    0.041690
C       0.019413    0.042160    0.014665
C       0.690181   -0.505135   -1.249034
C       0.692538   -2.045478   -1.309496
N      -0.674985   -2.568965   -1.371190
C       1.536798   -2.513508   -2.431949
N       2.159393   -2.895840   -3.328500
H       0.992390    1.997350   -0.001235
H      -0.578845    1.970852   -0.810032
H      -0.493789    1.939470    0.955209
H       0.559588   -0.328879    0.895860
H      -0.994798   -0.362541    0.084185
H       0.182108   -0.122668   -2.144371
H       1.726242   -0.153174   -1.311029
H       1.146485   -2.426759   -0.386207
H      -1.099869   -2.308212   -2.257257
H      -0.663771   -3.584111   -1.345812
