17

O       0.039845    1.409047    0.056611
C       0.022946   -0.006727    0.052222
C      -1.385652   -0.545667   -0.139933
C      -1.502587   -0.720540   -1.623782
O      -0.289292   -0.384694   -2.236154
C       0.718886   -0.603112   -1.200207
C       0.912227   -2.084189   -1.040795
C      -0.216980   -2.758570   -0.799544
C      -1.460943   -1.965475   -0.723334
H      -0.315920    1.691928   -0.794567
H       0.509004   -0.329073    0.974994
H      -2.184614   -0.180922    0.491717
H      -2.365414   -0.495648   -2.236465
H       1.610354   -0.050054   -1.492490
H       1.884095   -2.545558   -1.164381
H      -0.261771   -3.839580   -0.720721
H      -2.399560   -2.486003   -0.574523
