18

N       0.016054   -1.093517   -0.022245
C      -0.005954    0.061239   -0.017599
C      -0.001288    1.517650    0.045300
C      -0.809989    2.121823    1.228721
C      -1.152155    3.527399    0.654056
C      -0.471001    3.461495   -0.730387
C       1.061455    3.572166   -0.574586
C       1.411452    2.166964   -0.003793
O      -0.649844    2.083293   -1.102826
H      -1.707993    1.530117    1.412280
H      -0.224692    2.151131    2.149868
H      -2.231158    3.654103    0.546659
H      -0.772198    4.346654    1.269050
H      -0.909944    4.097560   -1.498061
H       1.536648    3.729856   -1.544721
H       1.357137    4.389964    0.086885
H       1.882126    2.194324    0.980925
H       2.060534    1.606330   -0.678054
