17

O      -0.090881    1.369326   -0.005513
C      -0.052421   -0.006192   -0.029843
C      -1.359106   -0.745365    0.150918
C      -1.817537   -1.625385   -0.987002
C      -0.881292   -2.183548    0.059782
C       0.614255   -1.997378   -0.156747
C       0.853459   -0.761440   -1.063177
O       2.060315   -0.372343   -0.311153
C       1.100402   -0.799494    0.717511
H       0.827091    1.657336   -0.116816
H      -2.059209   -0.402032    0.902390
H      -2.846282   -1.968121   -0.947869
H      -1.454951   -1.438216   -1.992405
H      -1.232805   -2.947328    0.742792
H       1.274919   -2.853912   -0.274803
H       0.898059   -0.686486   -2.150214
H       1.424921   -0.770403    1.759149
