13

O      -0.204747    0.186225    0.529602
C       0.045834    1.112845   -0.190233
C       1.370194    1.855380   -0.132431
O       1.316457    2.889197   -1.124168
C       2.379849    3.669537   -1.251368
C       2.550184    4.716676   -2.129913
N       3.795725    5.205541   -1.882926
N       4.408146    4.613554   -0.987600
O       3.434116    3.498901   -0.499721
H      -0.664582    1.500177   -0.951764
H       1.518885    2.281505    0.865877
H       2.197044    1.165505   -0.334101
H       1.889519    5.118519   -2.875814
