21

C      -0.016589    1.684840    0.218708
C      -0.064718    0.174332    0.081749
C      -1.376497   -0.405639   -0.423378
C      -1.697937   -0.016172   -1.884296
C      -2.924434   -0.633032   -2.373511
C      -3.939429   -1.156509   -2.749152
C       1.216148   -0.544483   -0.322110
C       0.691593   -0.650144    1.090308
O       1.342800    0.025418    2.127295
H       0.894450    1.998128    0.730900
H      -0.049323    2.178991   -0.758115
H      -0.868249    2.047201    0.806191
H      -1.348778   -1.498949   -0.358117
H      -2.200474   -0.076249    0.221257
H      -1.783160    1.073819   -1.968926
H      -0.857348   -0.306118   -2.527997
H      -4.834693   -1.611386   -3.093406
H       1.153118   -1.414863   -0.968055
H       2.101211    0.066490   -0.468292
H       0.240169   -1.597874    1.386538
H       2.187620   -0.410249    2.279566
