20

C      -0.087118    1.641846    0.081203
N       0.000949    0.198814    0.010009
C      -1.214947   -0.599763    0.460479
C      -0.197191   -1.643083    0.986174
C       0.632586   -2.344897    2.103120
C       1.816153   -1.661987    1.239100
C       1.650549   -2.406633   -0.075659
O       0.217838   -2.393592   -0.181130
C       0.761253   -0.492677    1.085134
H       0.882612    2.080808   -0.175819
H      -0.822234    2.005487   -0.644474
H      -0.380286    2.016582    1.081524
H      -1.774553   -0.088427    1.256053
H      -1.879881   -0.915990   -0.345949
H       0.532394   -1.909470    3.096958
H       0.616132   -3.436505    2.138405
H       2.819780   -1.520409    1.641088
H       2.098873   -1.881190   -0.927224
H       2.024956   -3.437075   -0.048678
H       0.670510    0.044489    2.039993
