15

N       0.009326    1.329101    0.008545
C      -0.018375   -0.009845    0.000598
N      -1.192218   -0.590314    0.004119
C      -1.435716   -1.916511   -0.001649
C      -0.600581   -3.005935   -0.011827
N       0.754748   -3.058877   -0.019214
C       1.567302   -2.053947   -0.018520
C       1.357801   -0.610186   -0.010345
N       2.327415    0.242178   -0.012406
H       0.914099    1.778183    0.005707
H      -0.858861    1.836278    0.016106
H      -2.500404   -2.150190    0.002840
H      -1.081669   -3.980824   -0.014361
H       2.630205   -2.315449   -0.025634
H       3.232869   -0.230188   -0.020288
