15

O      -0.051844    0.007615   -0.004054
C      -0.049404    1.200371    0.023275
C      -1.142959    2.292410   -0.040730
O      -1.348657    2.808262    1.298116
C      -0.326806    3.830391    1.131065
C       0.927890    3.547474    1.948770
O       1.706088    2.590343    1.222743
C       1.082185    2.291271   -0.011208
C      -0.022965    3.348037   -0.298204
H      -2.071053    2.145364   -0.594643
H      -0.741532    4.829257    1.290642
H       1.523105    4.459855    2.086070
H       0.664306    3.143351    2.932722
H       1.850187    2.106343   -0.767254
H       0.045322    4.020187   -1.147287
