18

C       0.360332    1.540176   -0.195638
C       0.043103    0.082426    0.035386
O       0.857872   -0.827950   -0.777971
C       1.207950   -1.615797    0.360464
C       2.554575   -1.181774    1.030572
N       1.844212   -0.135896    1.800507
C       0.524952   -0.623257    1.327335
C       3.169409   -2.270539    1.869258
O       3.080661   -2.321914    3.071590
H       1.383111    1.762596    0.115042
H       0.239857    1.786217   -1.255077
H      -0.325688    2.170681    0.380548
H      -1.017631   -0.127370   -0.160407
H       1.000897   -2.681307    0.233696
H       3.297270   -0.812096    0.311446
H       1.980633   -0.288630    2.796112
H      -0.209285   -0.871609    2.093616
H       3.709191   -3.054793    1.293230
