18

O       0.139192    1.378361   -0.041551
C       0.064730   -0.025194    0.173767
C      -1.360080   -0.547876    0.049413
C      -2.038836   -0.545596   -1.371250
C      -2.259637   -2.061963   -1.230514
N      -0.893709   -2.646083   -1.067484
C      -1.573638   -2.067437    0.107122
C      -3.351121   -2.833810   -1.708237
C      -4.283930   -3.469177   -2.127661
H      -0.053000    1.540820   -0.970511
H       0.721734   -0.578091   -0.510432
H       0.433399   -0.189110    1.192794
H      -2.002141   -0.034853    0.770335
H      -2.968577    0.023682   -1.396988
H      -1.408565   -0.266744   -2.220754
H      -1.011637   -3.658074   -1.018174
H      -1.791514   -2.674543    0.977660
H      -5.106241   -4.032246   -2.493952
