15

N      -0.013650    1.489742    0.106423
C       0.032111    0.077964   -0.047003
C       1.203850   -0.644863    0.686874
O       0.965560   -2.052528    0.658514
C       1.546499   -1.447740   -0.496783
C       0.387294   -0.800367   -1.326171
N      -0.934329   -1.397569   -1.207605
C      -1.298941   -0.737298   -0.038318
O      -2.274330   -0.799419    0.653485
H       0.879219    1.929096   -0.092271
H      -0.719081    1.915674   -0.484399
H       1.802800   -0.245993    1.498539
H       2.496493   -1.836798   -0.845229
H       0.648105   -0.364932   -2.290778
H      -1.242774   -2.317096   -1.492535
