16

C       0.013067    1.460149    0.080431
N      -0.149776    0.014286    0.111637
C       0.568161   -0.702788    1.051497
N       1.188905   -0.130473    2.083226
N       1.682803   -1.182543    2.748139
N       1.441400   -2.375115    2.229436
C       0.725718   -2.111295    1.136115
C       0.214067   -3.173376    0.221864
H       1.050910    1.778658   -0.096712
H      -0.626107    1.870139   -0.705050
H      -0.300943    1.879995    1.039254
H      -0.146658   -0.417855   -0.800598
H       2.200034   -1.068713    3.602374
H      -0.874854   -3.114082    0.110661
H       0.647682   -3.092517   -0.783131
H       0.466712   -4.159226    0.617138
