21

C      -0.098177    1.534324    0.043780
C       0.024860    0.009201    0.028656
C       0.756081   -0.556163   -1.208655
C       0.805444   -2.103408   -1.156360
O       1.329330   -2.646023   -2.343923
O       0.146605   -0.157565   -2.457314
C      -1.234790   -0.435493   -2.624148
C       2.124050   -0.027519   -1.276784
C       3.249325    0.392000   -1.288681
H       0.889069    2.003498    0.035884
H      -0.644708    1.900345   -0.829820
H      -0.628269    1.866466    0.941101
H       0.576002   -0.330462    0.912682
H      -0.966095   -0.454613    0.090741
H       1.445268   -2.415201   -0.324904
H      -0.209373   -2.482629   -0.952355
H       1.081086   -2.034342   -3.049233
H      -1.469083   -1.503509   -2.528067
H      -1.863406    0.127453   -1.923638
H      -1.480481   -0.117619   -3.640270
H       4.246311    0.757409   -1.314776
