14

O      -0.042786   -0.071259   -0.410903
C      -0.050200    1.115618   -0.192522
N      -1.109135    1.975540   -0.249850
C      -0.865033    3.336631    0.205860
C       0.682558    3.459025    0.172096
C       1.253752    4.324668    1.182432
C       1.718829    5.032200    2.034046
C       1.160434    1.988819    0.214639
O       2.247425    1.580274    0.492934
H      -2.038009    1.625269   -0.428118
H      -1.345872    4.065694   -0.451582
H      -1.234719    3.497874    1.224942
H       0.974344    3.811842   -0.828404
H       2.140486    5.655512    2.783633
