21

C       0.112333    1.352636   -0.175522
O       0.018871   -0.021345   -0.496824
C      -1.237213   -0.574615   -0.230134
C      -1.356342   -2.046176   -0.590380
C      -0.430124   -2.865646    0.260671
C      -1.728744   -2.403053    0.858956
C      -1.611034   -0.929449    1.262535
O      -0.621227   -0.572423    2.192699
C      -0.897971   -1.028548    3.498183
H       1.113923    1.681262   -0.463628
H      -0.628193    1.946703   -0.735179
H      -0.029453    1.526585    0.897518
H      -2.032156    0.036830   -0.683426
H      -1.787912   -2.427132   -1.507140
H      -0.386741   -3.919740    0.008085
H       0.505092   -2.437347    0.603664
H      -2.493452   -3.091923    1.195338
H      -2.582596   -0.502190    1.553929
H      -0.960732   -2.125607    3.541740
H      -0.079180   -0.695661    4.140446
H      -1.843530   -0.612647    3.881574
