22

C      -0.988509    0.556965    0.105807
C       0.536993    0.411013    0.067406
N       1.203292   -0.319274    1.132292
C       0.545174   -0.812570    2.081573
O       1.183170   -1.460184    3.083563
C       0.380898   -2.125965    4.041673
C       0.185484   -3.656004    3.893333
C       0.391422   -3.769867    5.429911
C       1.065375   -2.368476    5.400572
H      -1.326534    1.090827    1.000573
H      -1.322704    1.127983   -0.765727
H      -1.493267   -0.414854    0.078058
H       0.828005   -0.067538   -0.877398
H       0.992411    1.409933    0.031704
H      -0.544128   -0.767677    2.210491
H      -0.578790   -1.605555    4.156181
H      -0.750326   -4.017086    3.460460
H       1.026706   -4.084402    3.341794
H      -0.557081   -3.757615    5.973284
H       0.990177   -4.605670    5.794709
H       2.146384   -2.446818    5.258530
H       0.860001   -1.666283    6.211128
