15

C      -0.186420    1.363664   -0.150562
O       0.157833    0.006391    0.063970
C       0.712895   -0.618151   -1.079845
C       1.284315   -1.905990   -0.681697
C       1.769777   -2.958802   -0.373913
C      -0.271874   -0.805041   -2.161130
C      -1.073734   -0.941398   -3.053471
C      -2.059797   -1.103044   -4.093562
O      -1.819209   -1.520742   -5.201934
H       0.690568    1.957877   -0.448832
H      -0.963640    1.472279   -0.918855
H      -0.567086    1.740689    0.800122
H       1.525612    0.012595   -1.485571
H       2.194543   -3.892403   -0.096904
H      -3.084947   -0.806958   -3.792754
