18

C      -0.035883    1.359775   -0.121807
N       0.008163   -0.058069    0.142703
C      -1.140711   -0.922188    0.164905
C      -1.245587   -2.083723   -0.829054
C       0.133426   -2.416756   -1.395032
C       0.730987   -2.250445    0.055878
C      -0.725049   -2.288114    0.593428
C       1.176386   -0.790002    0.155703
O       2.303630   -0.342348    0.127819
H       0.993001    1.724769   -0.098415
H      -0.470586    1.576967   -1.106211
H      -0.620987    1.889210    0.639423
H      -2.062037   -0.487301    0.533591
H      -2.200828   -2.370637   -1.253381
H       0.184086   -3.463186   -1.702652
H       0.547872   -1.784896   -2.187699
H       1.476306   -2.969727    0.382050
H      -1.116367   -2.841990    1.436402
