15

N       0.033630    0.893518   -1.001843
C       0.059995   -0.113296   -0.230983
N      -1.099419   -0.759506    0.211417
C      -1.937302   -1.543776   -0.682818
C      -1.034488   -2.212174    0.309854
C       0.296397   -2.771076   -0.128340
O       1.369230   -2.036327    0.506485
C       1.352727   -0.691409    0.340845
O       2.309204   -0.020664    0.608280
H       0.983780    1.253277   -1.112186
H      -3.002963   -1.490896   -0.485296
H      -1.658442   -1.570114   -1.732810
H      -1.458617   -2.624998    1.221806
H       0.438190   -3.808574    0.175425
H       0.419277   -2.706530   -1.215523
