16

N       0.076031    1.421498    0.307559
C       0.003133    0.045215    0.017064
C      -1.146608   -0.735060    0.024606
N      -0.708885   -2.039235   -0.085014
C      -0.938483   -3.362969   -0.697423
C       0.626623   -3.508060   -0.771782
C       0.641406   -2.074835   -0.267917
C       1.146449   -0.797529   -0.210724
H       0.826897    1.877249   -0.195841
H      -0.790036    1.905370    0.106415
H      -2.170399   -0.467559    0.231227
H      -1.480465   -4.064767   -0.056799
H      -1.419586   -3.312620   -1.679231
H       1.054869   -4.264724   -0.108467
H       1.013041   -3.662813   -1.782449
H       2.171685   -0.470601   -0.292799
