19

C       0.172339    1.572485    0.002865
C      -0.021525    0.068137    0.029735
O       0.633630   -0.473177   -1.094501
C       0.095489   -1.643342   -1.688187
C      -0.344331   -2.740229   -0.694594
C       0.524468   -2.799616    0.557785
O       1.340462   -3.669109    0.743263
C       0.248947   -1.720432    1.622113
O       0.563190   -0.399148    1.224035
H       1.242199    1.794893    0.010036
H      -0.269863    1.990325   -0.904216
H      -0.292113    2.031012    0.878550
H      -1.094265   -0.194983    0.008864
H      -0.751054   -1.388896   -2.343104
H       0.899692   -2.029836   -2.319746
H      -1.380673   -2.567542   -0.382967
H      -0.298875   -3.711812   -1.192657
H      -0.813585   -1.793056    1.914865
H       0.871158   -1.938609    2.491480
