18

C      -0.190909   -1.246025    0.152511
C      -0.095718   -0.053583    0.039708
C       0.032582    1.395986   -0.091026
C       1.461015    1.872373   -0.042594
N       1.862574    3.199848   -0.567749
C       2.512919    1.953857   -1.071331
C       3.593401    1.502515   -0.047264
C       3.652866    2.399550    1.160730
C       2.513344    1.425381    1.023805
H      -0.279571   -2.299602    0.250032
H      -0.421742    1.720109   -1.037372
H      -0.544416    1.884661    0.707452
H       1.170287    3.471096   -1.266514
H       2.488120    1.701546   -2.123810
H       4.354743    0.770508   -0.281025
H       4.399173    2.110106    1.894431
H       3.484311    3.464333    1.066353
H       2.322514    0.622635    1.723053
