22

C      -0.146849    1.663472    0.099742
C      -0.016495    0.136319    0.149444
C      -1.348665   -0.590391   -0.046231
C      -1.995858   -0.394185   -1.426545
O      -2.900416   -1.497363   -1.587661
C      -2.554095   -2.522354   -0.751139
N      -3.153674   -3.632105   -0.693681
C      -1.337466   -2.134673    0.070875
C      -0.084806   -2.837583   -0.480382
H       0.817929    2.145790    0.282491
H      -0.506032    2.007411   -0.876062
H      -0.849712    2.026085    0.857983
H       0.700436   -0.192824   -0.612097
H       0.408321   -0.158302    1.117014
H      -2.058786   -0.213075    0.701830
H      -2.575481    0.526895   -1.519111
H      -1.250227   -0.418156   -2.233581
H      -3.921528   -3.660497   -1.367081
H      -1.489877   -2.458119    1.103129
H       0.119621   -2.556529   -1.519120
H       0.799369   -2.595734    0.116069
H      -0.236717   -3.919218   -0.452300
