11

N       0.159941   -0.967716   -0.643440
C       0.189518    0.077731   -0.153548
C       0.232306    1.411470    0.461509
N       1.529349    2.061443    0.284251
C       1.778328    2.593792   -0.817407
O       1.005050    2.681992   -1.946437
N       1.749041    3.400829   -2.889588
N       2.841100    3.708413   -2.408687
O       2.949333    3.237639   -1.106586
H      -0.596003    2.005179    0.051922
H       0.056295    1.300907    1.535025
