16

C      -0.012406    1.413008    0.049345
O      -0.022169   -0.012426    0.015941
C      -1.224921   -0.619410    0.002108
N      -2.327475    0.122568    0.019858
C      -3.494685   -0.533458    0.004863
C      -3.615967   -1.910962   -0.027381
C      -2.435561   -2.670462   -0.045565
O      -2.437055   -4.025281   -0.077317
C      -1.213384   -2.018494   -0.030684
H       1.041573    1.695461    0.055622
H      -0.512564    1.833321   -0.827821
H      -0.511988    1.791761    0.945562
H      -4.387587    0.087149    0.019701
H      -4.592323   -2.384436   -0.038163
H      -3.347222   -4.340664   -0.084391
H      -0.281850   -2.568407   -0.043871
