17

C      -1.240294    0.871006   -0.190472
C      -0.163243   -0.149507    0.029504
N       0.472838   -0.245534    1.119518
O      -0.008439   -0.907833   -1.102391
C       0.940912   -1.954306   -1.081138
C       0.870396   -2.658593   -2.444614
O       1.886408   -3.630063   -2.571610
C      -0.469019   -3.234199   -2.675474
N      -1.498056   -3.733840   -2.836218
H      -0.982914    1.515972   -1.036303
H      -2.184279    0.375163   -0.436156
H      -1.360744    1.472724    0.708829
H       1.175158   -0.983449    1.117225
H       1.961055   -1.573252   -0.949704
H       0.723556   -2.668920   -0.275178
H       1.059310   -1.913744   -3.224280
H       1.660399   -4.389035   -2.021419
