21

C       0.672218    1.476592    0.072981
C      -0.185573    0.220930   -0.130407
C       0.260301   -0.566575   -1.339385
O       1.498468   -1.288968   -1.242973
C       0.294414   -2.036625   -1.459143
C      -0.127498   -2.963818   -0.341754
C       0.174173   -2.625112   -2.869370
C       0.933023   -3.857471   -3.055931
C       1.557364   -4.874473   -3.198277
H       1.721180    1.203120    0.219671
H       0.617334    2.140510   -0.796684
H       0.339883    2.042768    0.947892
H      -0.141490   -0.403713    0.765781
H      -1.237022    0.504044   -0.271397
H       0.165327   -0.008995   -2.276633
H       0.056186   -2.519372    0.636664
H      -1.192584   -3.207822   -0.423215
H       0.436280   -3.899046   -0.404783
H      -0.886480   -2.813567   -3.084795
H       0.514662   -1.873371   -3.589881
H       2.114835   -5.768100   -3.332234
