21

C      -0.047535    1.497022    0.070921
C       0.035030   -0.022428   -0.050407
C       0.753004   -0.492996   -1.308270
O       1.208610    0.281566   -2.121631
C       0.875189   -1.978248   -1.502583
C      -0.283119   -3.028061   -1.626051
C       1.039390   -3.833821   -1.766401
C       1.559982   -2.698124   -2.695569
C       1.584118   -3.013984   -0.562601
H       0.950902    1.941366    0.086060
H      -0.579187    1.927522   -0.781474
H      -0.569869    1.785053    0.987534
H       0.549568   -0.464246    0.814174
H      -0.964890   -0.478018   -0.044902
H      -0.878919   -3.211929   -0.727751
H      -0.910548   -2.946250   -2.517558
H       1.136624   -4.908253   -1.922907
H       1.073657   -2.592626   -3.668019
H       2.643204   -2.580808   -2.774181
H       2.669976   -2.919302   -0.478336
H       1.117555   -3.196917    0.409297
