18

C      -0.587639    1.494547   -0.489194
C       0.036241    0.179471   -0.062644
C       1.333563   -0.314166   -0.819291
C       2.005189   -0.321427    0.544873
C       2.965206   -0.653838    1.409333
C       2.420626   -0.286310    2.782518
C       0.956790    0.199678    2.536823
O       0.109210    0.482512    3.348849
N       0.880551    0.235576    1.157577
H       0.172189    2.277259   -0.574566
H      -1.083100    1.381013   -1.459055
H      -1.334732    1.819321    0.240801
H      -0.724345   -0.604943    0.015769
H       1.256534   -1.282381   -1.316866
H       1.731193    0.421399   -1.523267
H       3.921333   -1.113718    1.215302
H       2.403069   -1.126599    3.485519
H       2.976345    0.521329    3.274893
