21

C      -0.324361    1.407077    0.204623
C       0.072045   -0.049449   -0.053167
C      -1.204753   -0.947785   -0.137860
C      -1.239871   -1.689125    1.174646
C      -0.114893   -1.541069    1.869558
C       0.881973   -0.659081    1.152699
C       2.024668   -1.393028    0.483272
C       2.076705   -1.161417   -0.826742
C       1.006299   -0.203110   -1.288165
H       0.558473    2.036996    0.359779
H      -0.886075    1.819633   -0.641383
H      -0.956351    1.487480    1.096236
H      -2.108480   -0.348811   -0.308491
H      -1.148114   -1.656690   -0.974981
H      -2.088026   -2.294182    1.477684
H       0.099819   -2.004865    2.826510
H       1.273313    0.119252    1.825248
H       2.710001   -2.026874    1.036253
H       2.815907   -1.577430   -1.503705
H       0.468766   -0.560922   -2.174872
H       1.449209    0.761298   -1.575725
