19

C       0.022106    1.475344    0.023452
C       0.033179   -0.020729   -0.103061
C       0.634765   -0.937290   -1.196109
C       0.023732   -1.950496   -0.204892
C       0.369987   -1.062279    1.020447
O      -0.977290   -1.076445    1.583560
C      -1.173277   -1.002977    0.126915
C      -2.593349   -1.015394   -0.346976
O      -3.259384   -2.187989    0.085772
H       1.040784    1.875649    0.065358
H      -0.485228    1.945045   -0.826118
H      -0.498899    1.770804    0.940171
H       0.177644   -0.882975   -2.188538
H       1.725334   -0.937490   -1.282698
H      -0.002232   -3.038602   -0.235529
H       1.219242   -1.105021    1.702578
H      -3.101164   -0.105319    0.011389
H      -2.625168   -1.007082   -1.441931
H      -3.049543   -2.288163    1.022140
