15

O      -0.020868   -0.042815    0.333238
C       0.015369    1.169524    0.319147
N       1.111604    1.899573    0.011343
C       2.471294    1.477705   -0.354028
C       2.826683    2.978576   -0.514051
O       2.578733    3.485548   -1.834290
C       1.249610    3.939261   -1.475757
C       1.379832    3.332616   -0.063562
H      -0.852261    1.815169    0.570317
H       2.988230    0.954445    0.457783
H       2.538433    0.892998   -1.275288
H       3.750030    3.353484   -0.071483
H       1.189735    5.034750   -1.488860
H       0.469408    3.515722   -2.116730
H       1.091230    3.927043    0.803943
