23

C      -0.016655    1.548579    0.321982
C       0.047181    0.068408    0.077771
C      -0.768714   -0.931825    0.850295
C       0.734379   -1.043346    0.877728
C       1.236363   -1.699450   -0.414739
C       2.770018   -1.908091   -0.531706
C       2.551080   -3.420880   -0.260442
C       1.052937   -3.227515   -0.620577
C       0.518660   -0.584248   -1.232251
H       0.912616    2.045163    0.018879
H      -0.836332    2.010321   -0.242794
H      -0.183394    1.769351    1.381738
H      -1.221733   -0.555613    1.762929
H      -1.366793   -1.682657    0.336810
H       1.295680   -0.975190    1.804252
H       3.122101   -1.724321   -1.552294
H       3.405526   -1.347590    0.160310
H       3.128349   -4.128518   -0.859926
H       2.687765   -3.670977    0.795221
H       0.307232   -3.728846    0.002765
H       0.852730   -3.472093   -1.669024
H      -0.269685   -0.904592   -1.924032
H       1.235226    0.033374   -1.783338
