17

N      -0.038098    1.307269   -0.024305
C      -0.076003   -0.058029    0.024545
N      -1.142651   -0.772272    0.037510
C      -0.730213   -2.162327    0.063102
C      -0.027905   -2.651015   -1.189589
C       0.780846   -2.252492    0.020991
O       1.536483   -3.262570    0.610925
C       1.257628   -0.810590    0.101701
O       2.207467   -0.368019   -0.856406
H       0.807490    1.691801   -0.419526
H      -0.892323    1.761348   -0.312210
H      -1.341564   -2.853103    0.632427
H      -0.033132   -3.717533   -1.386950
H      -0.070047   -2.014283   -2.069169
H       1.505011   -3.143778    1.567012
H       1.732637   -0.627626    1.075624
H       1.978530   -0.777166   -1.698992
