18

O      -0.006207   -0.041476    0.022945
C       0.001765    1.168593   -0.031742
N      -1.109470    1.980167   -0.061250
C      -0.834533    3.396505    0.028142
C      -0.539639    3.974058    1.455447
C       0.984265    3.930326    1.166554
C       1.660944    2.550363    1.389035
C       1.219747    2.089252   -0.045408
C       0.683407    3.517685   -0.315943
H      -2.017962    1.582190    0.120953
H      -1.540787    3.976022   -0.569754
H      -0.907559    4.998819    1.558874
H      -0.905462    3.381907    2.299417
H       1.563466    4.811003    1.443468
H       2.747706    2.633570    1.462269
H       1.304047    1.945981    2.227980
H       2.012150    1.682832   -0.671988
H       0.989464    4.067119   -1.204149
