18

C       0.071229    1.519310   -0.320892
C       0.043284    0.076331   -0.132130
C       0.015243   -1.118398    0.016229
C      -0.023594   -2.552196    0.220073
C       0.044597   -3.115264    1.692529
C      -1.163115   -4.053642    1.389952
C      -1.353807   -3.296617    0.093299
N      -2.266281   -3.171819   -0.772095
O      -3.351813   -4.020979   -0.484909
H       0.848064    1.814000   -1.035161
H      -0.887370    1.886840   -0.703659
H       0.272826    2.041053    0.621377
H       0.734246   -3.043987   -0.404108
H       0.984789   -3.594747    1.967333
H      -0.195373   -2.343618    2.424758
H      -0.888908   -5.102485    1.236986
H      -2.008738   -4.020427    2.080734
H      -3.967376   -3.806227   -1.193953
