20

C      -0.157234    1.577551   -0.038758
C       0.049290    0.072559    0.019367
O       0.821709   -0.334969   -1.120529
C       1.588278   -1.493541   -0.815435
C       3.077114   -1.178295   -0.524546
N       2.859254   -1.242118    0.959115
C       2.247320    0.027354    1.485721
C       0.797384   -0.482267    1.233913
C       1.455705   -1.770425    0.702736
H       0.794582    2.111708    0.029152
H      -0.634706    1.854973   -0.982382
H      -0.803193    1.905919    0.781685
H      -0.936956   -0.421731   -0.022684
H       1.366553   -2.289705   -1.532624
H       3.756196   -1.979614   -0.832536
H       3.443300   -0.221285   -0.907968
H       2.485201    0.160092    2.544767
H       2.552566    0.929454    0.945885
H       0.164469   -0.559059    2.119366
H       1.185377   -2.760733    1.070798
