23

C       0.211003    1.562467   -0.121127
C       0.118480    0.040355    0.021126
C       0.603481   -0.504144    1.381736
C      -0.250074   -0.016546    2.562646
C       0.663438   -2.006201    1.340819
C      -0.488561   -3.037340    1.341870
C       0.491763   -4.064558    2.010109
C       1.580571   -2.986517    1.954277
O       1.721974   -2.608370    0.576558
H       1.234595    1.913301    0.053138
H      -0.079227    1.877024   -1.128399
H      -0.443535    2.082812    0.584892
H      -0.918386   -0.282493   -0.144612
H       0.718208   -0.433232   -0.764301
H       1.636470   -0.161337    1.531348
H       0.097327   -0.451597    3.505164
H      -0.203508    1.070943    2.662268
H      -1.302262   -0.292950    2.432038
H      -1.320476   -2.768966    1.997014
H      -0.872161   -3.296067    0.352322
H       0.193266   -4.326434    3.028161
H       0.713216   -4.974943    1.448137
H       2.448118   -2.849799    2.591148
