20

C      -0.052067    1.538941   -0.014040
C       0.013343    0.029322    0.011171
C      -1.313414   -0.681713    0.377668
N      -1.108309   -2.149677    0.262781
C      -0.648393   -1.432058    1.480599
C       0.713202   -0.773008    1.164985
C       1.633399   -1.486415    0.139490
C       0.936082   -0.708406   -1.032791
O       0.331509   -1.444279   -2.055833
H       0.951653    1.976768   -0.039598
H      -0.592063    1.891103   -0.901667
H      -0.566710    1.936727    0.868793
H      -2.312985   -0.268172    0.302565
H      -1.992855   -2.599650    0.492257
H      -1.025921   -1.738606    2.448925
H       1.169293   -0.249150    2.005326
H       2.692458   -1.244405    0.259634
H       1.519902   -2.570455    0.080114
H       1.616017   -0.001478   -1.519523
H      -0.244674   -2.074842   -1.596481
