21

C      -0.028222    1.559757   -0.104054
C       1.527049    1.334545    0.001782
C       1.158846    0.184756    1.008383
C      -0.039108   -0.011144    0.009701
C       0.742096   -0.367477   -1.258918
C       1.754325    0.502262   -1.264036
C       2.608679    0.417843   -2.490891
C       2.067039   -0.896708   -3.151387
C       0.689792   -1.230923   -2.481189
H      -0.456939    2.063852    0.769450
H      -0.410222    1.998896   -1.029223
H       2.215443    2.137562    0.263085
H       1.868202   -0.640219    1.109818
H       0.845916    0.554735    1.990634
H      -0.935074   -0.569458    0.279016
H       2.471931    1.290510   -3.146280
H       3.685138    0.357069   -2.289211
H       1.984865   -0.807465   -4.237804
H       2.768467   -1.711872   -2.950739
H       0.588988   -2.303238   -2.273556
H      -0.156139   -0.967608   -3.132992
