15

C       0.034901    1.413637    0.007116
N       0.036751   -0.037411    0.001840
C      -1.087022   -0.622104    0.009039
N      -2.396572   -0.132734    0.021836
C      -3.256950   -1.206537    0.022256
N      -2.652462   -2.343562    0.015717
N      -1.301936   -2.015295    0.006788
C      -0.296712   -2.980675   -0.003094
O      -0.493365   -4.165430   -0.005289
H       1.065498    1.775442    0.000384
H      -0.466557    1.840168   -0.877069
H      -0.452939    1.833632    0.901921
H      -2.641552    0.840855    0.020369
H      -4.330885   -1.098428    0.030087
H       0.689713   -2.491296   -0.008974
