17

O      -0.045631   -0.085357    0.209350
C      -0.040310    1.107046    0.022295
C      -1.331066    1.909396   -0.112511
C      -1.186237    3.182704   -0.901761
C      -0.044596    3.601742   -1.441050
C       1.268048    2.850771   -1.297109
C       1.238003    1.924222   -0.052184
C       1.579427    2.111603   -2.522924
C       1.825585    1.499564   -3.527615
H      -2.093298    1.252705   -0.547022
H      -1.687036    2.132734    0.905471
H      -2.091516    3.768385   -1.041993
H      -0.017341    4.509271   -2.036291
H       2.070329    3.584397   -1.141497
H       1.269251    2.566785    0.837934
H       2.096597    1.251618   -0.029464
H       2.042155    0.957814   -4.414905
