18

C      -0.025517    1.475305   -0.114997
C       0.025826   -0.049952    0.020471
C      -1.366029   -0.650254    0.119234
O      -2.145199   -0.477676   -1.088019
C      -2.531709   -1.862093   -1.089717
C      -1.578679   -2.200921    0.080635
C      -0.379635   -3.027352   -0.302599
O       0.119698   -3.868707    0.399687
H       0.979659    1.895689   -0.209058
H      -0.600304    1.761872   -1.000219
H      -0.501293    1.933946    0.758768
H       0.550115   -0.478940   -0.840358
H       0.589935   -0.336979    0.917445
H      -1.895104   -0.209694    0.977711
H      -3.594104   -2.000031   -0.854348
H      -2.312705   -2.348140   -2.048937
H      -2.030094   -2.626352    0.977123
H       0.027970   -2.814224   -1.317925
