14

C      -0.026055    1.432503    0.100685
C       0.015817   -0.073651   -0.004844
O       0.047319   -0.786562    0.994615
C       0.020232   -0.701581   -1.319487
C      -0.006953   -0.228968   -2.599747
O       0.013081   -1.228210   -3.468401
N       0.056314   -2.466200   -2.781004
C       0.059748   -2.130724   -1.513998
O       0.095989   -3.032516   -0.543490
H       0.841186    1.873553   -0.402531
H      -0.923359    1.824218   -0.390404
H      -0.026768    1.724299    1.151068
H      -0.040300    0.765370   -3.020812
H       0.089482   -2.516433    0.291321
