20

O       0.035270   -0.030965    0.627423
C      -0.005895    1.111641    0.203085
C      -1.365742    1.702479   -0.195632
C      -1.521914    3.202557   -0.485989
C      -0.736208    3.635355   -1.707498
C       0.030413    4.932356   -1.746129
C       0.769493    3.620869   -1.617194
C       1.379054    3.226830   -0.288808
N       1.157150    1.824246    0.052407
H      -1.676670    1.127487   -1.077693
H      -2.045934    1.393552    0.604060
H      -2.586900    3.414966   -0.636645
H      -1.226989    3.790995    0.389587
H      -1.156462    3.297270   -2.651230
H       0.096549    5.467819   -2.686443
H      -0.014605    5.576147   -0.872627
H       1.312768    3.266425   -2.487939
H       2.463269    3.370641   -0.318242
H       1.009278    3.887838    0.505609
H       1.952676    1.296409    0.381167
