13

O       0.143102    1.348431    0.122704
C       0.028690   -0.039841    0.042601
C      -1.412649   -0.491437    0.044683
O      -2.325054    0.302018    0.086771
C      -1.757276   -2.001459    0.012588
O      -3.132698   -2.193252    0.113758
C      -1.200320   -2.598792   -1.220190
N      -0.748271   -3.053931   -2.181023
H      -0.757432    1.702467    0.131378
H       0.506648   -0.432405   -0.869493
H       0.537892   -0.530209    0.889465
H      -1.248006   -2.477607    0.864838
H      -3.530322   -1.312422    0.011654
