22

C      -0.209180    1.507865   -0.010553
C       0.002841   -0.003106    0.035499
C       1.129291   -0.511811   -0.913205
C       2.093010   -0.578840    0.301096
C       0.855770   -0.533003    1.243498
C       0.932659    0.246306    2.527286
C      -0.066943    0.003109    3.633523
C       1.366598   -0.432701    3.804687
H       0.736549    2.056431    0.065101
H      -0.679878    1.799599   -0.955883
H      -0.855923    1.846993    0.805346
H      -0.964070   -0.502351   -0.083917
H       0.911007   -1.503238   -1.320012
H       1.409051    0.146032   -1.740985
H       2.755535   -1.444324    0.380541
H       2.702693    0.325539    0.392655
H       0.537872   -1.557643    1.472721
H       1.264237    1.275260    2.414200
H      -0.420420    0.851666    4.209050
H      -0.815000   -0.767478    3.476864
H       1.582025   -1.495619    3.764485
H       1.993452    0.119346    4.496388
