17

C       0.085626    1.549985   -0.128038
C       0.047033    0.048823    0.045360
O       0.925873   -0.661011   -0.870222
C       1.459297   -1.472849    0.193658
C       2.949371   -1.240242    0.432183
O       3.050645   -0.114018    1.318679
C       1.851751    0.209097    1.880758
O       1.746092    1.056756    2.718535
C       0.746720   -0.630128    1.257823
H       1.105658    1.933712   -0.045685
H      -0.306578    1.817753   -1.113863
H      -0.530676    2.036120    0.634496
H      -0.980724   -0.322989   -0.062657
H       1.197914   -2.529245    0.079572
H       3.427194   -2.102586    0.910467
H       3.472101   -1.000787   -0.496923
H       0.110510   -1.083710    2.015364
