11

O      -0.029448   -0.037307    0.003285
C      -0.036210    1.172291    0.006719
C       1.173677    1.965258    0.000611
C       2.201088    2.590631   -0.004703
C      -1.321730    1.936866    0.017370
N      -1.355675    3.247553    0.021104
O      -2.711894    3.535634    0.030933
C      -3.345484    2.353299    0.032067
N      -2.558746    1.329455    0.024036
H       3.106575    3.147973   -0.009398
H      -4.425212    2.376020    0.039362
