20

C      -0.007771    1.413902   -0.122218
O      -0.027814    0.030037    0.142252
C      -1.304371   -0.577312    0.046670
C      -1.728550   -0.828700   -1.407280
N      -0.989580   -1.907455   -2.054855
C      -0.382211   -2.733943   -1.316749
O      -0.343281   -2.817936    0.032805
C      -1.217627   -1.930070    0.759416
C      -0.697510   -1.860668    2.184058
H       1.010088    1.760599    0.071563
H      -0.262207    1.651357   -1.164788
H      -0.701093    1.961053    0.536000
H      -2.056508    0.044364    0.560682
H      -2.803225   -1.052566   -1.443809
H      -1.593839    0.079877   -2.003889
H       0.224331   -3.526321   -1.752112
H      -2.222278   -2.375334    0.746150
H       0.284109   -1.384721    2.202042
H      -1.383864   -1.277279    2.805723
H      -0.617593   -2.866168    2.604871
