19

O      -0.001585    1.414989    0.038471
C      -0.022016    0.014783   -0.025693
C      -1.465904   -0.481127   -0.034035
O      -2.402048    0.287442   -0.027959
C      -1.643280   -1.957904   -0.053727
C      -2.849279   -2.541408   -0.027884
C      -2.766024   -4.041776   -0.007517
C      -1.280970   -4.318163   -0.357226
C      -0.531837   -2.995816   -0.046439
H       0.917063    1.698647    0.032866
H       0.469543   -0.376805   -0.934480
H       0.492622   -0.459918    0.828960
H      -3.778308   -1.984586    0.010329
H      -3.033646   -4.419734    0.990208
H      -3.464309   -4.516343   -0.705876
H      -0.868462   -5.173753    0.182483
H      -1.196924   -4.539069   -1.425762
H       0.260160   -2.792676   -0.775272
H      -0.042337   -3.031145    0.937029
