20

C       0.009251    1.607937    0.012491
C       0.086857    0.078155    0.048843
C       0.687086   -0.540743   -1.233300
C       2.160485   -0.177541   -1.315878
O       2.636661    0.616426   -2.084933
C       0.563508   -2.077761   -1.284413
C      -0.864904   -2.573166   -1.504191
O       1.445814   -2.606479   -2.275366
H       0.993496    2.059743   -0.143274
H      -0.639063    1.948220   -0.801712
H      -0.397025    1.998327    0.950269
H       0.686249   -0.245212    0.911070
H      -0.915761   -0.332854    0.207966
H       0.196238   -0.105521   -2.114370
H       2.792777   -0.694209   -0.556031
H       0.946393   -2.490310   -0.342035
H      -1.533260   -2.280030   -0.689516
H      -1.274933   -2.168068   -2.437482
H      -0.868157   -3.664059   -1.574730
H       1.168808   -2.264466   -3.133426
