17

O      -0.123360    1.274766    0.010557
C      -0.002337   -0.092389    0.076652
C       0.212577   -0.996751   -1.178331
C       0.956056   -2.179073   -0.527269
C       1.952798   -1.583049    0.502308
C       0.691790   -0.960572    1.152092
C      -0.187820   -2.135059    0.560919
C      -1.023976   -1.120139   -0.294418
O      -2.362686   -0.972334   -0.534067
H       0.705607    1.643236   -0.315689
H       0.315496   -0.547764   -2.158682
H       1.195478   -3.055567   -1.129785
H       2.390122   -2.361678    1.134837
H       2.744082   -0.916366    0.142091
H       0.648918   -0.635979    2.191053
H      -0.544975   -2.982237    1.141254
H      -2.631871   -1.630011   -1.185504
