19

C       0.091358    1.524325    0.276509
O       1.502981    1.407511   -0.110998
C       1.127721    0.263434   -0.915183
C       0.593113    0.661465   -2.326141
C      -0.774646   -0.080460   -2.406571
C      -0.735452   -0.892851   -1.111504
O       0.381076   -1.847435   -1.231803
C       1.658631   -1.155867   -1.010914
C      -0.114807    0.023020   -0.064478
H      -0.009965    1.799621    1.328446
H      -0.439156    2.246954   -0.352981
H       0.487989    1.745034   -2.400386
H       1.284727    0.345323   -3.110458
H      -1.623810    0.611811   -2.418047
H      -0.858403   -0.734723   -3.276718
H      -1.619810   -1.482714   -0.870896
H       2.310561   -1.367446   -1.864333
H       2.127980   -1.513424   -0.087501
H       0.126146   -0.558138    0.828061
