13

O      -0.028505   -0.058911   -0.002957
C      -0.002827    1.151897    0.007346
C       1.222089    1.951684    0.000430
C       2.515582    1.439666   -0.018597
N       3.378245    2.478270   -0.019268
C       2.677346    3.676494   -0.001279
C       1.331786    3.367510    0.011526
C       3.343081    4.921016    0.001799
N       3.904698    5.934946    0.004137
H      -0.941813    1.747680    0.022994
H       2.848321    0.414679   -0.031200
H       4.383183    2.409524   -0.031143
H       0.524495    4.083095    0.026899
