17

C       0.095517    1.501340   -0.176041
O       1.548032    1.531290    0.039349
C       1.525747    0.225283    0.614721
C       1.806326   -0.332048    1.998470
C       1.001013   -1.549002    1.425499
C      -0.443177   -0.959974    1.277406
C       0.050254    0.023600    0.214774
O       0.433580   -0.872798   -0.884544
C       1.557164   -1.160035   -0.054804
H      -0.417833    2.185009    0.510197
H      -0.167056    1.723813   -1.212880
H       2.861450   -0.570418    2.159315
H       1.395268    0.176348    2.874734
H       1.137637   -2.548004    1.832909
H      -1.189290   -1.659451    0.897484
H      -0.794159   -0.500634    2.204153
H       2.370775   -1.729285   -0.505915
