16

O       0.188279    1.348537    0.107905
C       0.057988   -0.047876   -0.116309
C      -1.371362   -0.502423   -0.074528
C      -2.071128   -0.943155    1.165419
C      -1.904445   -1.960132    0.039770
C      -2.880143   -1.649924   -1.056712
O      -3.595618   -2.325921   -1.739262
C      -2.430569   -0.166484   -1.141903
H      -0.185645    1.540737    0.974402
H       0.483762   -0.223387   -1.110169
H       0.653037   -0.632254    0.603922
H      -1.445124   -1.154091    2.028011
H      -3.057877   -0.562345    1.414615
H      -1.379789   -2.893830    0.202868
H      -3.159868    0.609275   -0.893228
H      -2.011310    0.041265   -2.130980
