19

O      -0.132248    1.322351   -0.107520
C       0.010080   -0.074846   -0.037609
C       1.218202   -0.599802   -0.777943
C       1.330584   -2.142675   -0.734345
C       0.181729   -2.787533    0.011867
C      -0.434799   -2.225719    1.268513
C      -1.241945   -2.288322   -0.022698
C      -1.334370   -0.741113   -0.041862
C      -0.519808   -0.676699    1.247376
H       0.600381    1.713755    0.381936
H       1.160677   -0.238991   -1.810480
H       2.115898   -0.140243   -0.343223
H       1.363713   -2.545625   -1.752846
H       2.272098   -2.441027   -0.259239
H       0.231229   -3.874546    0.032977
H      -0.555829   -2.813031    2.170212
H      -2.077511   -2.931716   -0.267602
H      -2.224649   -0.183412   -0.300151
H      -0.701155   -0.061147    2.119145
