16

O       0.094651    1.299742   -0.106205
C       0.053690   -0.074774   -0.041372
C      -0.382524   -0.841071   -1.294925
C      -0.089314   -2.332440   -1.173065
C      -0.589167   -2.238592    0.298175
O       0.543144   -1.990747    1.171362
C       0.983098   -0.731641    0.916999
N       1.961931   -0.127229    1.440827
C      -1.229162   -0.863466   -0.022560
H       0.860579    1.549774    0.433882
H      -0.549671   -0.264428   -2.196029
H      -0.779657   -2.919980   -1.784694
H       0.933499   -2.696818   -1.311572
H      -1.168957   -3.051491    0.726951
H       2.453141   -0.699459    2.126350
H      -2.212197   -0.478726    0.209429
