17

C      -0.645077    0.814816   -0.148654
O       0.589387    0.145006    0.022845
C       1.042798   -0.538470   -1.123628
C       2.475837   -0.993103   -0.847044
C       0.159482   -1.713199   -1.466100
N      -0.295021   -2.058652   -2.635322
C      -0.987221   -3.207117   -2.337450
N      -0.977937   -3.554036   -1.080629
O      -0.202528   -2.550116   -0.485897
H      -0.598847    1.538964   -0.975525
H      -1.471940    0.116828   -0.341042
H      -0.846061    1.348315    0.782449
H       1.019849    0.118132   -2.006511
H       2.496581   -1.665983    0.013764
H       2.889197   -1.512169   -1.715587
H       3.093005   -0.119384   -0.625832
H      -1.514430   -3.793705   -3.075742
