21

O       0.087533    1.372315    0.129527
C       0.071927   -0.037506    0.144947
C      -1.358420   -0.571808    0.050666
O      -2.009188    0.042229   -1.071609
C      -1.430914   -2.098298   -0.009377
C      -2.857855   -2.615286    0.068676
C      -3.078759   -4.132790    0.257765
C      -3.818573   -3.717928    1.544997
O      -3.464889   -2.332108    1.355213
H      -0.598451    1.626204   -0.502167
H       0.667533   -0.457364   -0.688833
H       0.542410   -0.366896    1.078098
H      -1.924773   -0.219030    0.918989
H      -1.603563   -0.311496   -1.872937
H      -0.966487   -2.455204   -0.941393
H      -0.851830   -2.522134    0.820603
H      -3.454852   -2.173692   -0.739761
H      -3.676510   -4.633077   -0.505295
H      -2.159696   -4.699360    0.423796
H      -4.905634   -3.866966    1.522455
H      -3.427520   -4.116388    2.488274
