22

C       0.619317   -0.080587   -1.542256
C      -0.004119    0.307301   -0.197614
C      -1.426780   -0.224609   -0.026483
O      -2.278460    0.289412   -1.043708
C      -1.650394   -1.735888    0.029315
C      -1.057736   -2.337456    1.237068
N      -2.369461   -1.675816    1.363996
C      -2.120028   -0.182512    1.385021
C      -1.446050    0.381930    2.623580
H       1.616255    0.354784   -1.656393
H       0.717556   -1.168196   -1.626073
H      -0.005987    0.261168   -2.370810
H       0.627852   -0.046682    0.623545
H      -0.032746    1.402776   -0.097959
H      -2.253004    1.251465   -0.992677
H      -2.039882   -2.312516   -0.802657
H      -1.127405   -3.415865    1.343222
H      -0.174764   -1.904807    1.698973
H      -3.096944    0.290633    1.251064
H      -0.453850   -0.040896    2.803189
H      -1.332813    1.468289    2.540033
H      -2.061031    0.175781    3.505814
