20

C       0.633258    1.637298   -0.034791
C       0.221972    0.160857    0.001934
C       0.928612   -0.667555   -1.106363
O       1.603045   -1.763593   -0.472490
C       1.855224   -1.399186    0.866069
C       3.103942   -0.607257    0.984956
N       4.075245    0.013848    1.070289
C       0.596500   -0.612694    1.303378
C       0.725222    0.196436    2.591332
H       1.711329    1.763117    0.104830
H       0.372460    2.075007   -1.004144
H       0.119742    2.219048    0.736079
H      -0.862611    0.105688   -0.131940
H       0.238812   -1.101460   -1.834701
H       1.657220   -0.048800   -1.647374
H       1.991474   -2.319622    1.442105
H      -0.164638   -1.386133    1.453165
H       1.512740    0.951172    2.525787
H      -0.215428    0.705084    2.822574
H       0.960875   -0.458093    3.436868
