17

C      -0.548321    0.977271   -0.024054
O       0.603886    0.150914    0.100504
C       0.997890   -0.510711   -1.066231
C       0.668713   -2.045516   -0.984836
C       1.347358   -2.671590    0.259606
C      -0.790167   -2.236899   -0.905270
N      -1.934142   -2.370340   -0.818605
C       1.171670   -2.679394   -2.214325
N       1.612214   -3.140852   -3.177001
H      -0.383740    1.772759   -0.763341
H      -1.438451    0.402444   -0.302379
H      -0.708739    1.431644    0.955487
H       0.532091   -0.087853   -1.964102
H       2.086255   -0.428349   -1.169891
H       1.017832   -2.128582    1.146026
H       1.085948   -3.726543    0.355129
H       2.432002   -2.581120    0.163934
