25

C       0.141420    1.452175    0.299844
C       0.011393   -0.036132   -0.043540
C       0.656329   -0.455114   -1.369373
C       0.020286    0.237950   -2.576319
C       2.224028   -0.388611   -1.407359
C       2.242584   -1.840340   -1.898858
C       2.941088   -2.343114   -3.129967
C       3.338485   -2.852854   -1.762017
C       0.752128   -2.006027   -1.581550
H       1.190113    1.769685    0.301395
H      -0.396109    2.085425   -0.412321
H      -0.267064    1.658404    1.294096
H       0.465938   -0.627096    0.762304
H      -1.051286   -0.316198   -0.061531
H       0.153894    1.323992   -2.538294
H       0.469891   -0.115896   -3.509949
H      -1.055594    0.031316   -2.624987
H       2.661164    0.362287   -2.073019
H       2.664344   -0.268121   -0.411423
H       2.400088   -3.016057   -3.788435
H       3.623921   -1.672122   -3.642405
H       4.289636   -2.526963   -1.351923
H       3.065837   -3.869857   -1.496730
H       0.567629   -2.569946   -0.660478
H       0.122795   -2.422024   -2.374844
