19

O      -0.056459    1.369868   -0.070461
C      -0.061872   -0.045118   -0.001455
C      -1.465931   -0.529763    0.054453
C      -2.628387    0.135743    0.076233
C      -3.674113   -0.976767    0.079733
C      -3.051495   -1.976072    1.110160
C      -1.899696   -1.998950    0.049770
C      -3.033086   -1.910305   -1.030906
O      -3.647267   -3.154519   -1.258552
H       0.858056    1.665481   -0.053433
H       0.446265   -0.493645   -0.874646
H       0.488696   -0.405873    0.886410
H      -2.801057    1.200842    0.046510
H      -4.732232   -0.713288    0.078173
H      -2.810667   -1.583204    2.100479
H      -3.589925   -2.923397    1.170445
H      -1.140975   -2.781430    0.014924
H      -2.764191   -1.408106   -1.969621
H      -4.399512   -3.014718   -1.842289
