16

C      -1.771352    0.770644   -0.976187
N      -0.814781   -0.285741   -0.646975
C       0.441723   -0.386196   -1.365232
C       0.836083    0.561076   -2.480351
O       0.072372    0.331576   -3.655195
C       0.416846    0.040549    0.081801
C       0.738639    1.405616    0.422834
N       0.981435    2.497513    0.719344
H      -1.336388    1.772995   -1.075112
H      -2.252034    0.506801   -1.920507
H      -2.527731    0.804596   -0.187552
H       0.746543   -1.419546   -1.541705
H       0.656995    1.601446   -2.202202
H       1.915378    0.458727   -2.669083
H       0.277536   -0.551122   -3.980851
H       0.697674   -0.672643    0.852683
