17

N      -0.104135    1.430729    0.122676
C      -0.017367   -0.033412    0.026028
C      -1.474997   -0.560636    0.076464
O      -2.145459   -0.110143    1.218066
C       0.689341   -0.553262   -1.265381
C       2.013120    0.019950   -1.456300
C       3.096799    0.521870   -1.588788
C       0.717804   -0.522962    1.206810
N       1.312098   -0.928493    2.109957
H       0.820537    1.830028    0.254000
H      -0.460329    1.799424   -0.756351
H      -1.968033   -0.230121   -0.855897
H      -1.481981   -1.654603    0.089774
H      -1.892699    0.819004    1.321586
H       0.749721   -1.647579   -1.230638
H       0.045592   -0.299953   -2.117893
H       4.064958    0.941556   -1.711104
