23

C      -0.057981    1.508430   -0.094105
C       0.078528   -0.013752   -0.013387
C       0.658208   -0.495181    1.322225
C       0.804542   -2.010218    1.387783
O       1.685981   -2.506587    0.341243
C       2.637721   -3.278659    1.092234
C       1.755846   -4.062534    2.095386
C       1.509527   -2.610176    2.618926
C       3.010977   -2.347939    2.270243
H       0.914569    2.000052    0.021590
H      -0.474635    1.820632   -1.056938
H      -0.716369    1.892804    0.693475
H      -0.903533   -0.480023   -0.169561
H       0.721563   -0.376787   -0.822422
H       1.630674   -0.018122    1.492364
H       0.003166   -0.179011    2.146532
H      -0.186703   -2.467340    1.250112
H       3.357409   -3.734662    0.414105
H       0.906946   -4.616604    1.687153
H       2.327751   -4.676631    2.793116
H       1.080439   -2.397782    3.597581
H       3.689123   -2.811518    2.988624
H       3.335207   -1.334200    2.028927
