21

C       0.101852    1.561437   -0.081340
C      -0.007162    0.043120   -0.019260
C      -1.406943   -0.498989   -0.372231
C      -1.739369   -1.520625    0.746955
O      -0.789244   -1.358361    1.802648
C       0.313712   -0.595590    1.364819
C       1.548516   -1.297616    0.771639
C       1.196421   -2.157108   -0.409873
C       1.239846   -0.670501   -0.596374
H       1.090410    1.900197    0.246961
H      -0.050065    1.926713   -1.103747
H      -0.649358    2.035906    0.559531
H      -2.137404    0.315284   -0.373728
H      -1.435521   -0.965996   -1.360387
H      -2.737655   -1.359586    1.169967
H      -1.708680   -2.552607    0.372313
H       0.578357    0.116377    2.153175
H       2.502317   -1.394880    1.275983
H       2.038238   -2.692565   -0.838459
H       0.267678   -2.715379   -0.451030
H       1.927572   -0.201433   -1.290835
