20

C       0.025506    1.561853    0.082257
C       1.522453    2.020620   -0.060532
C       2.186903    0.680771    0.191454
C       1.376370   -0.285343   -0.671580
C       0.039597   -0.007975    0.017713
O       0.032482   -0.625131    1.320646
C       1.329954   -0.923081    1.871504
C       2.242338    0.258018    1.617780
N       3.470950    0.356486    0.789134
H      -0.406598    1.875326    1.035197
H      -0.599555    1.970065   -0.717302
H       1.725782    2.411957   -1.063541
H       1.806856    2.783744    0.666028
H       1.364037    0.031975   -1.719338
H       1.688888   -1.330024   -0.633594
H      -0.842651   -0.401625   -0.492607
H       1.155050   -1.094165    2.936373
H       1.736030   -1.854572    1.451725
H       2.203481    1.038713    2.373096
H       3.784652   -0.556011    0.463604
