16

C       0.000325    1.517941   -0.005060
C       0.053158    0.014661   -0.007731
N       0.189717   -0.688408    1.061411
O       0.279866    0.115798    2.196341
C      -0.051162   -0.750510   -1.264629
C       0.001676   -2.253785   -1.267337
N      -0.187741   -0.047423   -2.333761
O      -0.277906   -0.851637   -3.468693
H       0.914937    1.920583    0.441201
H      -0.118596    1.904218   -1.014536
H      -0.828553    1.859002    0.622977
H       0.376527   -0.533867    2.901079
H      -0.913055   -2.656431   -1.713365
H       0.830348   -2.594794   -1.895675
H       0.120897   -2.640102   -0.257916
H      -0.374552   -0.201973   -4.173435
