20

C       0.106544    1.401548   -0.010217
O      -0.048833    0.036120   -0.321767
C      -1.327753   -0.559693   -0.102508
C      -1.850808   -0.304432    1.319920
C      -2.332895   -0.087664   -1.166529
C      -1.113069   -2.062598   -0.269617
C       0.088165   -2.646180   -0.874193
O      -0.119563   -2.677121    0.543185
H       1.111661    1.678162   -0.338898
H      -0.614874    2.044222   -0.534923
H       0.029597    1.600484    1.066972
H      -2.100856    0.747984    1.479962
H      -2.759356   -0.888704    1.495497
H      -1.099591   -0.611082    2.052072
H      -1.938340   -0.273935   -2.169440
H      -3.286005   -0.615877   -1.063568
H      -2.540332    0.981706   -1.069407
H      -2.047022   -2.625193   -0.330504
H       0.021932   -3.611515   -1.374821
H       0.881884   -1.984219   -1.205779
