14

N       0.582561    0.873016   -0.917596
C       0.240154   -0.300155   -0.282876
N      -1.017001   -0.739202   -0.185203
N      -0.912181   -1.832446    0.574613
N       0.304643   -2.159743    0.972145
C       1.063794   -1.204902    0.438732
N       2.442533   -1.208978    0.689363
C       3.423838   -0.693891   -0.098356
O       3.264064   -0.091044   -1.142513
H       1.512302    0.833184   -1.325039
H      -0.130576    1.196686   -1.555862
H      -1.719420   -2.366397    0.846046
H       2.728452   -1.762870    1.483836
H       4.423435   -0.881403    0.333366
