16

C      -0.007331    1.532653    0.142961
C      -0.049528    0.022364   -0.151690
C      -1.451619   -0.512591   -0.075141
N      -1.996553   -0.651960    1.143037
C      -3.247672   -1.106580    1.141285
N      -3.979728   -1.424087    0.076082
C      -3.333715   -1.242081   -1.073036
O      -4.008399   -1.539502   -2.182598
N      -2.082776   -0.794123   -1.217990
H       1.023029    1.897409    0.114247
H      -0.587216    2.092790   -0.597059
H      -0.420960    1.740973    1.133183
H       0.350734   -0.185103   -1.146784
H       0.558335   -0.506862    0.589064
H      -3.724836   -1.235487    2.110691
H      -3.411404   -1.357807   -2.922578
