17

O      -0.171599    1.307988   -0.444566
N       0.011633   -0.094578   -0.354133
C      -1.074165   -0.659708   -0.006194
C      -1.189633   -2.127116    0.159091
N      -1.584457   -2.479773    1.554091
C      -2.608717   -2.425997    0.502135
C      -3.418108   -1.136145    0.542005
C      -2.418556    0.016802    0.265369
O      -2.374103    0.910184    1.361376
H       0.705434    1.614497   -0.696971
H      -0.544952   -2.795928   -0.398285
H      -1.315333   -3.447712    1.718919
H      -3.079676   -3.347527    0.175464
H      -4.205935   -1.157096   -0.216011
H      -3.883430   -0.984189    1.518719
H      -2.705784    0.555675   -0.650905
H      -1.678314    1.547337    1.157537
