21

C      -0.152941    1.554642   -0.012792
C       0.043256    0.040282   -0.027502
C       0.976358   -0.515347   -1.101494
C       2.384781   -0.590239   -0.489543
C       2.278379   -0.086997    0.944033
C       0.831607   -0.581914    1.155675
O       0.918974   -1.963977    0.770052
C       1.492783   -1.813347   -0.525258
C       1.743775   -3.093254   -1.255302
H       0.797180    2.096251   -0.034281
H      -0.728738    1.875079   -0.887216
H      -0.705558    1.873143    0.878415
H      -0.933933   -0.454317   -0.081836
H       0.811707   -0.372867   -2.161939
H       3.282274   -0.509383   -1.088347
H       2.974736   -0.589916    1.621123
H       2.390665    0.994140    1.052361
H       0.399149   -0.500778    2.151492
H       0.810657   -3.645378   -1.408408
H       2.187309   -2.892511   -2.234498
H       2.430040   -3.735099   -0.693069
