26

C      -2.806093   -1.881945   -3.249355
C      -1.734291   -2.371724   -2.275383
N      -1.669443   -1.473123   -1.128954
C      -2.417371   -1.809412    0.076112
C      -0.926075   -1.744784    0.101892
C       0.019280   -2.909035    0.443302
C       1.337704   -2.711610   -0.333430
C       0.308141   -2.790552    1.956532
C      -0.525980   -4.323310    0.174265
H      -2.847920   -2.524415   -4.134815
H      -3.793715   -1.892143   -2.776543
H      -2.595827   -0.857094   -3.567079
H      -1.950615   -3.415093   -2.000793
H      -0.756486   -2.363437   -2.771304
H      -3.021482   -1.018603    0.516255
H      -2.876116   -2.796958    0.118915
H      -0.506272   -0.815421    0.492134
H       1.761075   -1.719185   -0.144919
H       2.082937   -3.455958   -0.031347
H       1.186048   -2.809373   -1.412836
H      -0.607403   -2.918993    2.543271
H       1.023472   -3.556858    2.273516
H       0.733237   -1.812868    2.206675
H      -0.653028   -4.530215   -0.890060
H       0.180544   -5.064159    0.564997
H      -1.484082   -4.493098    0.674553
