14

O      -0.283928    0.482798   -0.676076
C       0.201086    1.106287    0.239292
C       1.416345    1.918796    0.114927
O       1.916941    2.695447    1.197802
C       2.763941    3.362061    0.217721
C       3.795040    2.268100   -0.174463
C       2.605238    1.572519   -0.833246
C       1.849943    2.870677   -0.968080
H      -0.246044    1.116857    1.256944
H       3.033349    4.377851    0.495852
H       4.503569    2.629446   -0.923494
H       4.315333    1.775568    0.651603
H       2.560443    0.700162   -1.470875
H       1.293992    3.335744   -1.769753
