19

C      -0.393983    1.570146    0.306241
C      -0.149136    0.069108    0.240218
C       0.265034   -0.510587   -1.119679
O       1.538141    0.040573   -1.458369
C       1.508641   -1.092406   -0.563023
C       2.247669   -2.260468   -0.898513
C       2.881432   -3.257272   -1.125646
C       1.188107   -0.539644    0.843912
C       2.229467    0.372527    1.474813
H       0.419775    2.119469   -0.173332
H      -1.327211    1.833235   -0.203622
H      -0.475859    1.913158    1.342715
H      -1.008537   -0.477845    0.640894
H      -0.354065   -0.860583   -1.938793
H       3.439086   -4.135184   -1.340112
H       0.941024   -1.364769    1.518267
H       2.551837    1.145640    0.772952
H       1.832967    0.863310    2.369625
H       3.111907   -0.202638    1.774345
