21

C       0.047134    1.367712    0.110904
O      -0.021830   -0.027372   -0.048474
C       0.789030   -0.499185   -1.108528
C       0.697444   -2.011098   -1.119492
C      -0.538976   -2.771177   -1.704763
C      -0.040897   -2.426305   -3.137588
C       1.220857   -2.848755   -2.314680
O       2.548369   -2.842981   -2.703166
C       0.367244   -4.035033   -1.762468
H       1.072721    1.704876    0.332473
H      -0.298600    1.902295   -0.788934
H      -0.600776    1.635658    0.949407
H       0.470898   -0.043897   -2.058687
H       1.839177   -0.199510   -0.948508
H       1.016967   -2.388713   -0.142219
H      -1.561505   -2.723001   -1.341026
H      -0.353102   -3.113699   -3.929452
H      -0.112288   -1.390481   -3.469843
H       2.650729   -3.437743   -3.453983
H       0.682239   -4.461293   -0.806653
H       0.076897   -4.807593   -2.480282
