20

C       0.073865    1.663868    0.322622
C      -0.024803    0.182071    0.010603
C      -1.437073   -0.338566    0.072399
C      -2.335602   -0.267916   -1.107634
N      -1.887993   -1.573485   -0.589195
C       0.966644   -0.424594   -0.976301
O       1.974353    0.366343   -1.525628
C       1.064821   -0.752081    0.496348
O       2.148451   -0.165996    1.177005
H       1.100534    2.025488    0.273382
H      -0.522927    2.238264   -0.392906
H      -0.308690    1.872369    1.327490
H      -1.892317   -0.211374    1.054793
H      -3.395106   -0.062093   -0.984898
H      -1.905461    0.090773   -2.039569
H      -1.164368   -1.949736   -1.196239
H       0.635628   -1.187377   -1.676779
H       2.584724    0.560049   -0.800205
H       0.769739   -1.735249    0.857871
H       2.854751   -0.819904    1.222002
