18

C       0.019269    1.316709    0.117537
C       0.084490   -0.131229    0.014439
C       0.126548   -1.333227   -0.071768
C       0.127196   -2.781868   -0.141136
O      -0.849125   -3.458402    0.114228
N       1.319456   -3.321109   -0.603825
C       2.649389   -3.083040   -0.085924
C       2.020961   -4.451711   -0.032635
C       1.578980   -5.054302    1.279573
H       0.944892    1.786698   -0.230695
H      -0.808052    1.712364   -0.481456
H      -0.147074    1.625504    1.155382
H       3.415517   -2.855386   -0.822605
H       2.734209   -2.535798    0.850480
H       2.352743   -5.172548   -0.778808
H       1.357946   -4.280345    2.019827
H       0.673917   -5.652180    1.145839
H       2.369638   -5.698134    1.677864
