18

O       0.057863   -0.346629    0.221465
C      -0.067817    0.859531    0.225176
N       0.937749    1.753409    0.023095
C       2.321750    1.361724   -0.175672
C       2.791124    1.495077   -1.652968
O       4.177759    1.807627   -1.621673
C       4.457395    2.428179   -0.392653
C       3.616793    3.602369    0.032336
C       3.336577    2.204802    0.577126
H      -1.037846    1.366726    0.398331
H       0.723309    2.737385    0.073640
H       2.388152    0.321326    0.149607
H       2.658811    0.574533   -2.226467
H       2.217189    2.290714   -2.150312
H       5.507259    2.366594   -0.134073
H       4.063520    4.312940    0.718915
H       2.939162    4.048127   -0.688915
H       3.506586    1.998550    1.626662
