24

C       0.809582   -0.191351   -1.297010
C      -0.035295   -0.037141   -0.026888
C       0.601016   -0.637428    1.234349
C       1.936098    0.024769    1.621086
C       1.858136    1.529295    1.901679
C      -0.325014   -0.817433    2.478918
N      -0.030754   -2.292703    2.576294
C      -0.547202   -2.878167    1.327440
C       0.745850   -2.169536    1.274290
H       1.056015   -1.243304   -1.479026
H       0.266644    0.177363   -2.172602
H       1.750304    0.364638   -1.236824
H      -0.254582    1.023735    0.147327
H      -1.008597   -0.512943   -0.191856
H       2.321147   -0.489000    2.510640
H       2.672799   -0.160131    0.829135
H       1.597729    2.101724    1.006183
H       1.110449    1.757231    2.669373
H       2.821666    1.903829    2.260521
H       0.025253   -0.302862    3.376488
H      -1.389064   -0.596186    2.336498
H      -0.519291   -3.963949    1.326850
H      -1.437896   -2.451567    0.871461
H       1.684278   -2.699324    1.131431
