21

C      -0.099608    1.384528    0.261374
C      -0.091159   -0.069434   -0.200121
C       1.016568   -0.393427   -1.229869
C       1.715691   -1.673435   -0.688588
C       3.200608   -1.763801   -1.029193
C       1.419394   -1.516202    0.821014
O       0.125845   -0.954138    0.912058
C       0.962749   -2.894034   -1.195396
O       1.435281   -3.752094   -1.897052
H       0.869495    1.664213    0.688340
H      -0.308176    2.054241   -0.580056
H      -0.868362    1.539181    1.023250
H      -1.080324   -0.322113   -0.601407
H       0.618076   -0.523160   -2.240009
H       1.752784    0.415944   -1.273706
H       3.732148   -0.876220   -0.672623
H       3.656086   -2.647635   -0.573094
H       3.347931   -1.848865   -2.108507
H       1.412804   -2.464971    1.368720
H       2.184362   -0.867158    1.277906
H      -0.098080   -2.947223   -0.861594
