18

C       0.142102    1.150719   -0.326139
N      -0.405834   -0.083913    0.252746
C       0.437049   -0.712272    1.197132
C       0.954322   -1.966587    1.035551
O       0.820570   -2.878243    0.050567
N       1.719242   -2.218607    2.143576
C       1.638121   -1.096686    2.948438
C       2.344413   -0.995691    4.257785
N       0.876633   -0.182028    2.400400
H       1.052790    0.911392   -0.883768
H      -0.585338    1.574367   -1.025714
H       0.394218    1.909696    0.427324
H      -1.309789    0.119948    0.668680
H       0.223138   -2.466229   -0.590372
H       2.227515   -3.068003    2.323936
H       2.024927   -1.774302    4.961356
H       3.432654   -1.078874    4.147815
H       2.118234   -0.023192    4.697139
