21

C      -0.032191    1.558093    0.014746
C       0.033107    0.028936    0.011874
C       0.712990   -0.542595   -1.234114
O       2.055622   -0.061918   -1.379942
C       0.696621   -2.071765   -1.257218
N       1.383607   -2.543361   -2.442768
C       1.282972   -3.858857   -2.826858
N       2.157727   -4.216042   -3.850675
O       0.514109   -4.650505   -2.311929
H       0.967152    1.989491   -0.087787
H      -0.638299    1.926280   -0.820042
H      -0.476110    1.932866    0.941476
H       0.573729   -0.326580    0.901570
H      -0.976577   -0.393812    0.083740
H       0.201284   -0.175909   -2.132545
H       2.527735   -0.272012   -0.565106
H       1.162367   -2.458571   -0.334818
H      -0.327792   -2.452155   -1.273481
H       2.215744   -2.022671   -2.677501
H       2.401088   -3.500408   -4.519803
H       1.904722   -5.096372   -4.273937
