14

O       0.021038    1.362931    0.109917
C       0.042075    0.002974    0.022953
C      -0.282994   -0.831522    1.211300
C      -1.178880   -1.007626   -0.015657
C      -2.565343   -0.693630   -0.015494
N      -3.693836   -0.433976   -0.024852
C      -0.431436   -1.767569   -1.092874
O      -0.173479   -0.896145   -2.196057
C       0.702387   -0.827295   -1.058724
H      -0.211618    1.720447   -0.756500
H       0.356208   -1.653602    1.519922
H      -0.743452   -0.282984    2.026878
H      -0.426539   -2.834152   -1.278821
H       1.757195   -1.005397   -1.227994
