14

N      -0.102129   -1.082820   -0.487526
C      -0.054892    0.032659   -0.188747
C       0.033040    1.456023    0.147113
O       0.011387    1.712874    1.561214
C       1.287070    2.411164    1.525453
C       1.424844    2.107895    0.038989
C       2.572846    1.696668   -0.787672
N       1.919687    3.010905   -0.975084
H      -0.766033    1.998094   -0.377658
H       1.178277    3.473531    1.768875
H       2.020873    1.945076    2.191014
H       3.578430    1.741316   -0.379148
H       2.409875    0.913675   -1.523910
H       1.323101    3.007433   -1.799283
