22

C       0.141792    1.346844    0.071920
O      -0.060628   -0.048551    0.010439
C      -1.408556   -0.530636    0.013862
C      -2.188799   -0.057562    1.248709
C      -2.133380   -0.126024   -1.278349
C      -1.188617   -2.081008    0.031312
C      -0.392650   -2.591207    1.249105
C      -2.460291   -2.799603   -0.080377
N      -3.464358   -3.368684   -0.150829
H       1.223514    1.499327    0.042503
H      -0.304045    1.877894   -0.779958
H      -0.244867    1.788228    0.999995
H      -2.432069    1.005837    1.177839
H      -3.132290   -0.604405    1.331534
H      -1.613525   -0.215926    2.164340
H      -1.547003   -0.423602   -2.152899
H      -3.114982   -0.602862   -1.338402
H      -2.290027    0.955101   -1.320274
H      -0.608309   -2.304288   -0.872025
H      -0.963611   -2.485238    2.174555
H      -0.151146   -3.649614    1.124515
H       0.532658   -2.020870    1.333676
