17

C      -0.077640    1.451610    0.042535
N      -0.015283    0.003639    0.001876
C      -0.023343   -0.781621   -1.123222
C       0.050270   -2.086979   -0.691298
C       0.074379   -3.337071   -1.509781
N       0.103319   -2.120441    0.676239
C       0.062832   -0.856491    1.072673
C       0.093377   -0.401335    2.411035
C       0.118563    0.002522    3.545636
H       0.775227    1.890372   -0.484191
H      -1.002591    1.811886   -0.417886
H      -0.052871    1.771531    1.084566
H      -0.079782   -0.350036   -2.109736
H       0.988888   -3.910111   -1.323863
H      -0.769536   -3.987695   -1.257255
H       0.023861   -3.109982   -2.578133
H       0.142046    0.339974    4.552237
