14

C      -0.067627    1.451966   -0.066541
C      -0.005905   -0.052798    0.025771
O       0.023045   -0.691120    1.040488
N       0.017557   -0.717225   -1.238663
N      -0.013057   -0.052296   -2.404447
C       0.023042   -1.000214   -3.321296
C       0.076044   -2.252214   -2.654144
O       0.123622   -3.458137   -3.232389
N       0.071998   -2.062566   -1.351409
H       0.792641    1.842632   -0.615352
H      -0.961131    1.770939   -0.608599
H      -0.079910    1.845934    0.948997
H       0.011049   -0.780367   -4.376409
H       0.152695   -4.121692   -2.530460
