21

C      -0.271533    1.559711   -0.032606
C       0.040231    0.071437   -0.126403
C       0.766467   -0.540174   -1.332724
C       2.281559   -0.408036   -1.212516
C       2.874054    0.608047   -0.249983
O       2.233027    0.354093    1.006927
C       1.164206   -0.554342    0.768173
C       1.573398   -1.465271   -0.422476
C       1.811338   -2.944492   -0.427812
H      -0.955203    1.862100   -0.833817
H      -0.754815    1.794458    0.922261
H       0.626585    2.176310   -0.104920
H      -0.879978   -0.503738    0.037194
H       0.315172   -0.778090   -2.290762
H       2.856767   -0.703665   -2.083221
H       3.956023    0.462379   -0.131413
H       2.706113    1.648129   -0.558692
H       0.873766   -0.996683    1.721452
H       0.938447   -3.496819   -0.061084
H       2.027193   -3.303979   -1.439605
H       2.663504   -3.212897    0.207840
