22

C       0.067905    1.919325    0.739516
C       0.013916    0.428802    0.486862
C       1.254574   -0.329306    0.063568
C       0.672721   -0.542499    1.428166
C       1.337669   -0.262881    2.755035
C       0.338618   -0.283732    3.841649
N       0.847549   -1.576905    3.343650
C       0.161725   -1.868222    2.021191
C      -1.321138   -2.191470    2.070358
H       1.015598    2.206415    1.206770
H      -0.025721    2.483989   -0.194635
H      -0.738689    2.242537    1.407054
H      -0.914846    0.079413    0.040246
H       1.157077   -1.125152   -0.669072
H       2.185517    0.226750   -0.007206
H       2.361403    0.070573    2.895584
H       0.678440   -0.072179    4.851174
H      -0.684860    0.019076    3.637736
H       0.700722   -2.714217    1.581538
H      -1.917845   -1.367603    2.471966
H      -1.696511   -2.412307    1.065067
H      -1.493301   -3.074857    2.693940
