15

N      -0.087122   -1.223354   -0.101649
C      -0.074363   -0.067318   -0.069340
C      -0.050474    1.386991   -0.021144
C       0.013111    2.070502    1.369744
C       1.546209    1.786804    1.536060
C       1.851656    3.263307    1.858018
C       0.745959    3.325948    0.785501
C       1.329738    2.093813    0.013752
H      -0.780560    1.802169   -0.722899
H      -0.743027    2.057965    2.154391
H       1.986835    0.879725    1.948300
H       1.585469    3.614042    2.859637
H       2.838782    3.636228    1.568844
H       0.263286    4.192490    0.331737
H       2.091761    2.108158   -0.765151
