12

O      -0.036003   -0.066979    0.003483
C       0.008661    1.132341    0.008889
O      -1.205337    1.826833    0.029228
N      -1.307091    3.203320    0.037728
C      -0.212920    3.879029    0.026154
C       1.119030    3.304340    0.004898
C       1.208648    1.951659   -0.003301
C       2.245272    4.167460   -0.006082
C       3.180905    4.924523   -0.015104
H      -0.344434    4.955645    0.033504
H       2.154895    1.426577   -0.018974
H       4.013968    5.584432   -0.023549
