22

C      -0.035541    1.551630   -0.007230
C       0.005771    0.022541   -0.012625
C       0.809743   -0.531048   -1.183321
O       0.626416   -0.474032    1.182370
C      -0.194432   -0.654198    2.271451
C      -1.434649   -1.574828    2.459164
N      -1.226800   -0.980839    3.859341
C       0.272220   -1.233101    3.612710
C      -0.997269    0.355151    3.142782
H       0.980020    1.955435    0.053503
H      -0.502142    1.925970   -0.924349
H      -0.607221    1.934350    0.842263
H      -1.020865   -0.369498   -0.063937
H       1.846411   -0.184085   -1.126431
H       0.813913   -1.623926   -1.164315
H       0.386156   -0.198580   -2.135871
H      -2.384855   -1.281967    2.005228
H      -1.282632   -2.656527    2.417452
H       0.548259   -2.289882    3.648803
H       0.925879   -0.621185    4.239291
H      -0.437370    1.080292    3.739134
H      -1.915279    0.788174    2.736443
