18

C       0.038337    1.483751    0.112237
C       1.358683    0.750392    0.063643
C       0.066334   -0.023886    0.090637
N      -0.019044   -0.880443   -1.096564
C       0.054569   -0.421104   -2.501879
C       0.274314    1.013412   -2.937008
O       1.458238    1.474976   -2.290709
C       1.925805    0.493422   -1.351500
C       1.277445   -0.842072   -1.779242
H      -0.244714    1.925292    1.062999
H      -0.258821    2.066831   -0.745627
H       2.042866    0.788551    0.903530
H      -0.269506   -0.544116    0.981186
H      -0.483985   -1.067670   -3.189367
H       0.430168    1.022809   -4.025141
H      -0.569579    1.679808   -2.719281
H       3.017278    0.507037   -1.376789
H       1.845481   -1.753819   -1.935306
