19

C       0.145205    1.476800   -0.121960
O      -0.320504    0.194373   -0.481404
C       0.624249   -0.563349   -1.189487
C       1.765313   -1.240908   -0.348833
C       1.257413   -2.604187   -0.866004
O       1.648324   -3.734775   -0.774218
C       0.102999   -1.954519   -1.564982
C      -1.335761   -2.428712   -1.506415
C      -0.608847   -2.433122   -2.809155
H       1.013157    1.425176    0.552186
H       0.431065    2.067153   -1.006494
H      -0.672045    1.985150    0.394757
H       1.012604    0.010608   -2.044237
H       2.799502   -0.994472   -0.601249
H       1.615627   -1.123526    0.728966
H      -1.513134   -3.374656   -1.006521
H      -2.072850   -1.655729   -1.322499
H      -0.863211   -1.679746   -3.547433
H      -0.275446   -3.383403   -3.212970
