15

N       0.094113    1.385406   -0.076409
C      -0.016375   -0.011902   -0.027060
C      -1.102731   -0.839108   -0.080928
C      -0.606825   -2.192121   -0.068616
O      -1.350966   -3.327908   -0.103517
C       0.751922   -2.160388    0.004661
N       1.128681   -0.808392    0.010107
C       2.437534   -0.354411   -0.042227
O       3.401214   -1.078439   -0.002900
H       0.420202    1.794760    0.793448
H      -0.793114    1.808243   -0.317028
H      -2.137626   -0.529209   -0.100977
H      -2.280857   -3.089460   -0.153021
H       1.498139   -2.932003    0.043395
H       2.488592    0.742034   -0.132956
