16

O      -0.222832    1.326138   -0.046779
C      -0.028332   -0.053946    0.011450
C      -0.381189   -0.837646    1.257820
C      -1.265948   -0.908560    0.028022
O      -2.526945   -0.333161    0.031752
C      -0.993273   -2.036836   -0.947408
O       0.426981   -2.050800   -1.108359
C       0.917450   -0.719239   -0.973080
H       0.317601    1.749083    0.628150
H       0.234350   -1.688774    1.532242
H      -0.794505   -0.265101    2.081351
H      -2.396246    0.619504   -0.075447
H      -1.287255   -3.031703   -0.600508
H      -1.514569   -1.820057   -1.892742
H       0.884249   -0.164488   -1.924548
H       1.959333   -0.792516   -0.643561
