16

O       0.170206    1.453710   -0.556479
C       0.006405    0.092646   -0.296753
C      -1.397720   -0.528903   -0.195292
C      -0.868574   -1.832927   -0.767587
C      -1.775189   -0.996372   -1.614215
N      -0.680640   -0.592887   -2.493270
C      -0.588199    0.485816   -3.314722
O       0.433322    1.125734   -3.499415
C       0.274911   -0.959298   -1.410168
H       0.463280    1.569992   -1.471007
H       0.570763   -0.184182    0.602353
H      -2.139994   -0.389610    0.579411
H      -0.912931   -2.859425   -0.439571
H      -2.786020   -1.170313   -1.956176
H      -1.533843    0.688158   -3.853631
H       1.272891   -1.260199   -1.715449
