15

O      -1.094992    0.853565    0.399802
C      -0.366531   -0.256386    0.175924
N       0.020910   -0.601074   -1.024641
O       0.726045   -1.791244   -0.845341
C       0.719762   -2.100851    0.461199
C       0.049161   -1.172232    1.193966
C      -0.196540   -1.135707    2.647119
C      -0.246588    0.151455    3.397613
N      -1.473434   -0.630489    3.195309
H      -1.253855    1.282463   -0.452132
H       1.233226   -3.011140    0.731119
H       0.174728   -2.011134    3.174086
H       0.117131    0.183184    4.420871
H      -0.118496    1.069979    2.833307
H      -2.017512   -0.207203    2.446763
