21

C       0.180072    1.467863   -0.037029
O       1.202238    0.483366   -0.191755
C      -0.144111    0.034596    0.020178
C      -0.432181   -0.707475    1.285284
C      -1.898517   -1.015100    1.730409
C      -1.202814   -2.128846    2.564619
C      -0.208776   -2.253085    1.377096
C      -0.381795   -1.307834    3.577646
C       0.201143   -0.225951    2.609449
H       0.230551    2.052525    0.879332
H      -0.063193    2.035419   -0.934699
H      -0.597754   -0.401556   -0.872800
H      -2.447229   -0.230805    2.261740
H      -2.507963   -1.416001    0.916300
H      -1.755280   -2.988643    2.944106
H      -0.633069   -2.784180    0.521076
H       0.804477   -2.612174    1.580539
H      -1.005131   -0.874361    4.365152
H       0.398514   -1.904517    4.058924
H       1.292187   -0.231687    2.560813
H      -0.120048    0.784521    2.878602
