16

N       0.107074    1.391910    0.176619
C      -0.063612    0.019186    0.050984
C      -1.139080   -0.808760   -0.015628
C      -2.632211   -0.869322   -0.055931
O      -2.922175   -2.253133   -0.312122
C      -1.773989   -3.089317   -0.100597
C      -0.620309   -2.139064   -0.041368
C       0.725901   -2.053515    0.009807
O       1.080487   -0.715043    0.065969
H       1.003459    1.700009   -0.178831
H      -0.643301    1.920942   -0.246580
H      -3.097895   -0.557477    0.892918
H      -3.090926   -0.277503   -0.859297
H      -1.888324   -3.661210    0.833393
H      -1.720909   -3.807347   -0.927586
H       1.548156   -2.746703    0.013383
