23

C       0.304683    1.480135   -0.291579
C       0.136831    0.011365    0.037537
C       1.328300   -0.901625    0.186875
C       0.467034   -0.588431    1.387999
C       1.010596    0.228146    2.528515
O       1.744357   -0.629518    3.386740
C       2.306213    0.026048    4.507606
C       3.184318   -0.997301    5.211384
O       4.186306   -1.490381    4.344854
H       1.213803    1.900400    0.147628
H       0.373651    1.622609   -1.375645
H      -0.544421    2.073249    0.066414
H      -0.730627   -0.437315   -0.440134
H       1.290210   -1.898822   -0.237336
H       2.312427   -0.443200    0.152575
H      -0.192986   -1.384859    1.720716
H       1.661878    1.037984    2.164985
H       0.190250    0.702385    3.093429
H       2.917032    0.883808    4.181660
H       1.519850    0.402287    5.183075
H       3.687960   -0.531766    6.065020
H       2.548141   -1.810668    5.596244
H       3.726136   -1.716048    3.527240
