15

N      -0.146809    1.409591    0.185506
C      -0.060303    0.035443    0.085637
N      -1.080765   -0.802135    0.100280
C      -0.456857   -2.024285    0.059998
N      -1.260444   -3.150290    0.064625
C      -0.916212   -4.483136    0.028122
N       0.277543   -4.916589   -0.022000
N       0.859349   -2.007137    0.011462
N       1.099392   -0.647140    0.026511
H       0.523249    1.922834   -0.370146
H      -1.090552    1.732412    0.022949
H      -2.241288   -2.928240    0.103919
H      -1.819953   -5.106021    0.048423
H       0.269392   -5.934473   -0.040262
H       2.046858   -0.315283    0.074586
