21

C       0.608544    1.404020    0.406759
C      -0.014672    0.066564    0.004119
C       0.490887   -0.422088   -1.348852
O       0.284483   -0.977516    0.936552
C      -0.448433   -0.999607    2.156273
C      -0.556785   -2.490623    2.528741
O       0.708949   -3.099410    2.603160
C       0.190781   -0.218390    3.221843
C       0.690999    0.401707    4.121770
H       1.696484    1.308018    0.478421
H       0.375280    2.166368   -0.343875
H       0.234508    1.748280    1.373113
H      -1.110337    0.180494   -0.042079
H       1.576000   -0.563631   -1.319849
H       0.026283   -1.375773   -1.612657
H       0.260562    0.307908   -2.130270
H      -1.465683   -0.610982    1.988166
H      -1.032092   -2.596704    3.508233
H      -1.199275   -2.971188    1.773748
H       1.169007   -2.852853    1.791522
H       1.143213    0.949930    4.911095
