14

N       0.019771   -1.104854   -0.004619
C       0.002265    0.051543    0.002157
C      -0.019718    1.493219    0.010527
C      -0.643515    2.422349    1.101007
C      -0.048294    3.373132    0.021412
C       1.209992    2.456902    0.001494
C      -0.669049    2.434446   -1.054567
H      -1.731604    2.392229    1.190377
H      -0.153888    2.411029    2.077263
H      -0.064832    4.461336    0.027717
H       1.831964    2.448053    0.899254
H       1.810871    2.458194   -0.910508
H      -0.202169    2.434125   -2.041892
H      -1.758953    2.405063   -1.118931
