17

C      -0.058057    1.560160    0.053024
C       0.029376    0.049014    0.035613
C      -1.192675   -0.662019   -0.519264
C       1.338524   -0.667385   -0.241910
O       2.535050    0.068618   -0.098733
C       2.697941    0.438147    1.205093
O       3.608001    1.076268    1.622396
O       1.646633   -0.006432    1.953485
C       0.742698   -0.717736    1.134415
H       0.834921    2.038786    0.457967
H      -0.205870    1.940849   -0.962935
H      -0.910268    1.881348    0.660913
H      -1.378888   -0.357788   -1.554678
H      -1.072774   -1.750468   -0.508567
H      -2.081835   -0.419222    0.072148
H       1.428796   -1.492291   -0.937565
H       0.319851   -1.586017    1.624154
