14

N       0.104399    1.402882    0.136172
C      -0.049278    0.019701    0.039155
C      -1.154647   -0.819377    0.034563
N      -2.542520   -0.862494    0.033454
C      -2.802721   -2.142467   -0.004473
N      -1.682635   -2.967222   -0.035657
C      -0.600195   -2.114692   -0.005201
N       0.720760   -2.172389   -0.033471
N       1.023576   -0.823977    0.003712
H       0.666362    1.800610   -0.608242
H      -0.796560    1.863363    0.152567
H      -3.795605   -2.570346   -0.011932
H      -1.680921   -3.971872   -0.053440
H       1.989437   -0.556071    0.082858
