15

C      -0.308257   -1.296340   -0.238320
C      -0.073720   -0.129006   -0.060892
C       0.088366    1.292037    0.083767
C       0.477182    2.110171    1.301742
C       1.746717    1.629140    2.027405
C       2.438321    0.468443    1.430840
N       2.588159    1.791321    0.786547
C       1.324505    2.184000    0.056790
H      -0.487257   -2.333530   -0.378818
H      -0.699099    1.823820   -0.452189
H      -0.196758    2.842917    1.726021
H       2.062701    2.081477    2.961725
H       3.361669    0.164595    1.917313
H       1.901675   -0.328725    0.937418
H       1.423662    2.958689   -0.693418
