19

C       0.018291    1.405839   -0.026685
O      -0.035415   -0.014900   -0.032226
C       0.576142   -0.620950   -1.070925
C       0.643650   -1.976024   -1.272729
N       1.361658   -2.119225   -2.452803
C       1.688009   -3.385276   -3.073807
C       1.680706   -0.868851   -2.888948
C       2.455166   -0.580130   -4.132755
N       1.214531    0.059498   -2.065905
H       1.051710    1.766505    0.010137
H      -0.460758    1.827279   -0.916798
H      -0.518742    1.720247    0.870195
H       0.269076   -2.818118   -0.718112
H       0.778888   -3.935781   -3.337682
H       2.261726   -3.208613   -3.983827
H       2.288003   -4.005875   -2.400080
H       1.954603   -0.952170   -5.034521
H       2.554711    0.502244   -4.222233
H       3.461729   -1.014324   -4.110484
