18

O       0.020406    0.013637   -0.429492
C      -0.009414    1.169678   -0.070803
C      -1.308351    1.933145    0.179512
C      -1.000128    3.361730    0.645264
C      -0.106233    3.298077    1.903337
C       1.246171    2.957910    1.295052
C       1.240609    1.950796    0.174213
N       1.295339    3.415582   -0.094280
C      -0.035882    3.998105   -0.377166
H      -1.892281    1.925423   -0.748144
H      -1.892829    1.376286    0.921131
H      -1.912600    3.941714    0.797800
H      -0.050655    4.269795    2.405830
H      -0.450889    2.561614    2.635784
H       2.151272    3.066933    1.884601
H       2.156809    1.420773   -0.065277
H      -0.320229    3.809677   -1.417029
H       0.048946    5.080733   -0.237322
