25

C      -0.599287   -0.360911    0.582154
C       0.918152   -0.586474    0.543280
C       1.488673   -0.850838   -0.849104
C       1.433443    0.372367   -1.745966
O       2.150000    1.423733   -1.101673
C       2.720880   -1.726632   -0.959901
C       1.396754   -2.242933   -1.478729
C       0.718758   -3.373200   -0.718561
C       1.218807   -2.409714   -2.981711
H      -0.894458    0.513059   -0.007288
H      -1.146069   -1.225142    0.191552
H      -0.938034   -0.187346    1.608667
H       1.425784    0.298325    0.940932
H       1.177815   -1.410434    1.214120
H       1.877293    0.156985   -2.725600
H       0.387025    0.668654   -1.921551
H       2.041971    2.221214   -1.627894
H       3.482411   -1.445470   -1.681088
H       3.119132   -2.156871   -0.045783
H       0.848091   -3.300428    0.362599
H      -0.357353   -3.405389   -0.927110
H       1.138691   -4.336198   -1.033002
H       1.533536   -3.416165   -3.282619
H       0.168228   -2.296354   -3.276092
H       1.809612   -1.702332   -3.566625
