14

C       0.009796    1.413440    0.085647
O       0.010215   -0.017766    0.010988
C       0.614932   -0.674106    0.993391
C       0.777820   -2.014901    1.170522
C       1.504753   -2.077594    2.393051
N       1.999920   -3.218146    3.000987
N       1.745870   -0.889354    2.912728
O       1.170579    0.025121    1.985296
H       1.031141    1.804152    0.081293
H      -0.525381    1.750197   -0.801848
H      -0.503121    1.756627    0.988420
H       0.455705   -2.813805    0.526493
H       1.388344   -4.019131    2.936754
H       2.302041   -3.053010    3.952186
