16

N       0.119978    1.273346    0.368697
C      -0.050316    0.132999   -0.369096
O       0.763648   -0.278847   -1.168225
C      -1.366804   -0.544596   -0.143490
O      -1.360226   -1.976997   -0.049845
C      -2.145353   -1.370615   -1.069984
C      -3.484210   -0.850126   -0.460077
C      -3.556383   -1.109965    1.021132
C      -2.682475    0.005114    0.512880
H       1.028290    1.708765    0.331349
H      -0.450421    1.449974    1.178586
H      -1.938785   -1.645754   -2.096658
H      -4.335486   -0.554491   -1.057553
H      -4.478131   -0.783286    1.491759
H      -3.112378   -2.003113    1.441603
H      -2.842055    1.048910    0.748925
