16

C      -0.042282    1.522032   -0.082872
C      -0.016163    0.009695   -0.048732
C       1.139730   -0.722242   -0.589387
O       0.967655   -0.565297    0.824955
C      -1.364748   -0.655241    0.018239
C      -1.513983   -2.027757    0.550614
N      -1.991647   -0.872887    1.336244
H       0.972508    1.926724   -0.077549
H      -0.557231    1.877772   -0.981631
H      -0.578242    1.916536    0.786556
H       1.007267   -1.735921   -0.963081
H       1.977093   -0.171271   -1.015852
H      -2.065540   -0.310087   -0.739877
H      -2.295412   -2.674868    0.162897
H      -0.614996   -2.532329    0.890891
H      -1.296217   -0.676373    2.054853
