18

O      -0.201253   -0.032514    0.043013
C      -0.071422    1.172230    0.096728
C       1.208723    1.875078   -0.021937
C       1.220061    3.218067    0.066939
N       2.349446    4.045424   -0.085698
C       3.433873    3.835509    0.915878
C       3.599539    3.361738   -0.478653
C       3.561566    1.908526   -0.908161
C       2.476833    1.082151   -0.197368
H      -0.951266    1.838365    0.245671
H       0.297815    3.765574    0.254197
H       3.928842    4.742319    1.250255
H       3.237675    3.103116    1.693776
H       4.203316    3.995571   -1.125688
H       3.367620    1.895712   -1.987491
H       4.548462    1.454446   -0.766594
H       2.833562    0.751291    0.786424
H       2.259034    0.164484   -0.750842
