23

C       0.080541    1.491074   -0.185328
C      -0.014151   -0.011893    0.114636
C      -1.427746   -0.528819    0.080557
C      -2.504724   -0.202487    1.131634
C      -2.969399   -1.696461    1.117630
C      -4.444613   -2.037817    0.938016
C      -1.973257   -1.983310   -0.017317
C      -2.095355   -1.033788   -1.164378
O      -3.351900   -0.597229   -1.613348
H       1.115755    1.842142   -0.131701
H      -0.298455    1.717538   -1.188007
H      -0.506971    2.074832    0.531332
H       0.593908   -0.570173   -0.608564
H       0.425625   -0.212688    1.101078
H      -2.089464    0.109389    2.093258
H      -3.255178    0.529493    0.818179
H      -2.596906   -2.178535    2.028019
H      -4.852439   -1.555647    0.048196
H      -4.582207   -3.120220    0.832929
H      -5.025881   -1.715701    1.810040
H      -1.423960   -2.912962   -0.129764
H      -1.395045   -1.252658   -1.973587
H      -3.254804    0.307568   -1.928891
