17

C       0.027049    1.453582    0.065905
C       1.334837    0.695087   -0.013534
O       1.674130    0.116039    1.248695
C       0.458229   -0.714261    1.218230
C       0.775245   -2.150179    0.960653
C       0.504056   -2.700887   -0.221841
C      -0.142440   -1.972178   -1.366940
O      -0.703133   -0.703806   -1.033891
C       0.004082   -0.034911   -0.065487
H      -0.273333    1.949435    0.985812
H      -0.235632    1.971143   -0.852475
H       2.129936    0.891074   -0.722223
H      -0.138548   -0.560257    2.125217
H       1.258362   -2.716658    1.751179
H       0.768400   -3.735742   -0.427049
H       0.597180   -1.847717   -2.176440
H      -0.967613   -2.563822   -1.779621
