20

C      -0.054553    1.573446   -0.019251
C       0.003028    0.043745   -0.002026
C       0.716072   -0.506257    1.236062
C       0.814497   -2.037908    1.245693
N       1.681866   -2.551196    0.165445
C       2.577714   -3.254192    0.737343
N       2.485982   -3.349820    2.121009
C       1.400708   -2.584309    2.550743
N       0.962449   -2.354922    3.720317
H       0.951603    2.007621   -0.020144
H      -0.575286    1.941845   -0.908720
H      -0.580190    1.962554    0.860072
H      -1.016617   -0.362617   -0.039601
H       0.512908   -0.323466   -0.899153
H       1.729968   -0.090417    1.299323
H       0.194323   -0.206333    2.152217
H      -0.191765   -2.454980    1.106485
H       3.379645   -3.771332    0.219310
H       3.140146   -3.821032    2.722961
H       1.517282   -2.822122    4.439356
