19

O      -0.271654    1.651653   -0.108826
C       0.057668    0.279807    0.123664
C      -1.181441   -0.623844    0.063597
C      -2.137206   -0.343019    1.239565
O      -2.599374    0.992693    1.319262
N      -1.715661   -0.525324   -1.307094
C      -2.850396   -1.361819   -1.678410
C      -3.016112    0.110229   -1.569986
H      -0.623868    1.692683   -1.006246
H       0.795337   -0.065337   -0.611489
H       0.514668    0.242185    1.117730
H      -0.827014   -1.657236    0.185661
H      -3.024310   -0.985682    1.175944
H      -1.609295   -0.634962    2.163836
H      -1.872175    1.561083    1.023310
H      -2.777762   -1.844798   -2.649455
H      -3.315909   -1.971957   -0.906288
H      -3.575280    0.504957   -0.729210
H      -3.050906    0.715363   -2.472919
