17

O      -0.079048    1.373988    0.006492
C       0.075596   -0.004294    0.004204
C       0.647537   -0.745273   -1.246615
C       0.664879   -2.167652   -0.744665
C       0.571219   -2.180752    0.782422
C      -0.767375   -1.618349    1.211698
C       0.491176   -0.767136    1.302732
C      -1.209779   -0.886107   -0.082189
C      -0.611815   -1.596599   -1.324637
H       0.796151    1.774669    0.062152
H       1.278679   -0.343332   -2.030984
H       1.214729   -2.929405   -1.282204
H       1.052055   -2.952170    1.370012
H      -1.386288   -2.035084    1.996558
H       1.021297   -0.379319    2.165107
H      -2.180213   -0.400424   -0.137540
H      -1.129723   -1.999204   -2.186268
