19

C       1.152421    0.513890   -1.069455
C       0.064262    0.023220   -0.095332
C       0.659465   -0.629645    1.129317
C       0.744953   -2.132380    1.204087
C      -0.609616   -2.790307    1.522570
O      -0.549277   -4.204513    1.465755
N       1.120508    0.006505    2.139305
O       0.990371    1.400171    1.989795
H       1.787347   -0.312153   -1.405562
H       0.697952    0.969640   -1.954179
H       1.787471    1.258560   -0.584479
H      -0.549109    0.873338    0.216304
H      -0.589762   -0.691510   -0.605161
H       1.103114   -2.535310    0.248571
H       1.468634   -2.406680    1.978823
H      -0.963595   -2.435654    2.502276
H      -1.360476   -2.497904    0.781031
H       0.046346   -4.501599    2.161134
H       1.362507    1.725096    2.816016
