19

C       0.397996    1.283477   -0.312386
C       0.296337   -0.225315   -0.228662
O       1.147713   -0.910974    0.290806
C      -0.970689   -0.867642   -0.812522
N      -0.933419   -2.315955   -0.892543
C      -0.138984   -2.815600   -2.012279
C      -0.217593   -4.352120   -2.039914
C       0.490449   -4.923398   -3.181773
N       1.050846   -5.357918   -4.094087
H       1.226749    1.639149    0.300800
H       0.568301    1.580350   -1.354266
H      -0.536607    1.758828    0.004090
H      -1.807885   -0.551534   -0.171485
H      -1.181078   -0.441450   -1.801213
H      -0.510313   -2.651468   -0.029617
H      -0.567141   -2.421797   -2.940989
H       0.916947   -2.506749   -1.980438
H       0.211958   -4.766653   -1.119957
H      -1.267488   -4.661393   -2.070369
