17

C      -0.389325    1.597013   -0.181963
C       0.032121    0.154963    0.010020
C       0.794959   -0.571369   -1.204174
O       0.972551    0.144530   -2.393186
C       1.962052   -0.707112   -0.229108
C       3.143180   -1.162500    0.333029
C       3.032711   -0.720337    1.678107
N       1.883185   -0.069775    1.944404
N       1.293434   -0.070143    0.747373
H       0.428459    2.202934   -0.582050
H      -1.228428    1.646967   -0.881991
H      -0.704466    2.036457    0.768629
H      -0.786021   -0.448753    0.416385
H       0.320131   -1.514791   -1.484304
H       1.594667    0.860642   -2.225506
H       3.955237   -1.709813   -0.115113
H       3.757518   -0.847943    2.469748
