10

N      -0.041797    1.489527    0.024715
C      -0.023948    0.035042    0.003375
C       0.822205   -0.488617    1.152076
F       0.324064   -0.167214    2.347819
F       0.913364   -1.827319    1.092400
F       2.072870    0.005171    1.087104
H       0.871434    1.851646   -0.228707
H      -0.703794    1.840162   -0.657661
H      -1.038908   -0.344507    0.152622
H       0.374433   -0.428392   -0.913423
