20

C       0.239738    1.571771    0.011926
C       0.127310    0.121590   -0.007193
C       0.005207   -1.076276   -0.005960
C      -0.088702   -2.508525   -0.062914
N      -0.526645   -3.248289    1.150596
C      -1.375064   -3.275509   -0.044656
C      -2.748624   -2.631111    0.128235
C      -3.818294   -3.705165    0.364754
O      -2.741970   -1.687800    1.178280
H       1.060299    1.901661    0.658792
H       0.429458    1.968300   -0.991742
H      -0.683220    2.031290    0.382147
H       0.706657   -2.981265   -0.637481
H       0.006466   -4.105030    1.263213
H      -1.378738   -4.186264   -0.641477
H      -2.991786   -2.083881   -0.793184
H      -3.574876   -4.300804    1.251480
H      -4.787102   -3.227534    0.531020
H      -3.906479   -4.380711   -0.493925
H      -2.052356   -1.982467    1.792684
