21

C      -0.043536    1.572074   -0.112829
C       0.013796    0.085267   -0.001464
C       0.008085   -1.034452   -1.015583
C       1.260948   -1.670904   -0.416137
C       0.894422   -0.906643    0.887507
C      -0.417293   -1.565752    1.336856
C      -0.639685   -2.862327    2.049800
C      -0.988239   -1.539530    2.718544
C      -1.058002   -0.979315    0.102173
H       0.916516    1.992457   -0.435549
H      -0.799244    1.875251   -0.846216
H      -0.305588    2.038659    0.844097
H      -0.283847   -0.977927   -2.057437
H       1.324713   -2.763092   -0.351201
H       2.168037   -1.273662   -0.881037
H       1.655672   -0.623965    1.613285
H      -1.457269   -3.499296    1.727326
H       0.224944   -3.404209    2.421408
H      -0.356111   -1.203392    3.534947
H      -2.038418   -1.293387    2.842960
H      -2.112067   -0.883753   -0.129355
