10

O       0.114461    1.350120    0.215203
C       0.073329    0.012934    0.003269
C       0.077631   -0.801550   -1.098198
N       0.018432   -2.123825   -0.696957
C      -0.020512   -2.101123    0.608950
N       0.010886   -0.814984    1.093289
H       0.157457    1.792647   -0.637973
H       0.119165   -0.521436   -2.139491
H      -0.070968   -2.956878    1.264559
H      -0.007353   -0.511028    2.052458
