16

N      -0.035554    1.532497    0.175748
C      -0.044067    0.091358    0.058512
C       0.815480   -0.509288    1.177854
O       2.160073   -0.100676    1.027698
C      -1.421983   -0.572383   -0.184196
O      -0.916525   -1.185172   -1.420153
C       0.305740   -0.579372   -1.270857
N       1.353433   -0.622317   -1.964634
H       0.915097    1.823468    0.390403
H      -0.289322    1.974519   -0.702551
H       0.473949   -0.129560    2.146372
H       0.714240   -1.605205    1.177587
H       2.439874   -0.365382    0.138442
H      -1.743233   -1.338548    0.525475
H      -2.233775    0.126636   -0.395622
H       1.251736   -1.211452   -2.792557
