21

O      -0.094838    1.461292   -0.067681
C       0.001546    0.038363   -0.041464
C      -1.404534   -0.547063    0.047577
C      -2.507364   -0.120868   -0.894920
C      -1.830122   -1.448973   -1.095727
C      -0.755466   -1.667456   -2.153285
C      -0.047810   -0.343320   -2.558090
C       0.778044   -0.501371   -1.257848
C       0.565919   -2.036174   -1.405366
H       0.800588    1.813553   -0.116069
H       0.546929   -0.279367    0.862631
H      -1.720755   -0.814378    1.049981
H      -3.515483   -0.127789   -0.494211
H      -2.317681    0.693456   -1.581999
H      -2.397887   -2.339411   -0.840146
H      -1.102195   -2.323700   -2.954884
H       0.574713   -0.496730   -3.443811
H      -0.632601    0.567432   -2.692616
H       1.805734   -0.121852   -1.246828
H       0.480582   -2.636964   -0.494783
H       1.311903   -2.480346   -2.069965
