17

O      -0.072721    1.398412    0.034710
C       0.008195    0.020838    0.010513
C      -1.314526   -0.782575    0.069789
C      -0.732622   -1.773088   -0.899366
C       0.506786   -0.864446   -1.169077
N       1.755633   -1.164568   -0.445654
C       1.086858   -0.799207    0.837552
C       0.272111   -1.964167    1.398587
N      -0.913986   -2.100363    0.528350
H       0.791512    1.759037   -0.192868
H      -2.318361   -0.402434    0.216337
H      -1.224542   -2.419043   -1.618693
H       0.590629   -0.507321   -2.198507
H       2.066970   -2.133382   -0.491531
H       1.724103   -0.279236    1.559004
H       0.839891   -2.900841    1.420457
H      -0.089225   -1.760686    2.413180
