20

C       0.040877    1.555188   -0.265360
C       0.011264    0.085058    0.171340
C      -1.386667   -0.504659    0.114798
O      -2.300922    0.135680    0.960848
C      -1.936832   -1.095871   -1.154130
C      -1.602937   -2.014285    0.027694
C      -0.447097   -2.999504   -0.077801
C      -2.729971   -2.537287    0.763324
N      -3.607235   -3.014403    1.346825
H       1.057282    1.954795   -0.212657
H      -0.312290    1.672605   -1.295862
H      -0.588329    2.170972    0.384718
H       0.689751   -0.494720   -0.460821
H       0.379510   -0.000134    1.200484
H      -2.632202    0.920695    0.512342
H      -2.985945   -0.933713   -1.372380
H      -1.289032   -1.174412   -2.021250
H       0.348193   -2.612059   -0.717294
H      -0.022837   -3.216242    0.906944
H      -0.795416   -3.941676   -0.510605
