21

C      -0.037739    1.511455   -0.027365
C      -0.014433    0.002127    0.011345
C       1.207681   -0.747661   -0.499708
C       0.869017   -0.764535    0.973659
O       1.676781   -0.044740    1.858611
C       0.134334   -1.996265    1.509619
C      -1.219940   -1.980870    0.799905
C      -2.153428   -0.841697    1.133709
C      -1.301977   -0.769472   -0.108674
H       0.930809    1.920853    0.271144
H      -0.273351    1.879407   -1.032473
H      -0.794542    1.907639    0.658463
H       1.069628   -1.650142   -1.088102
H       2.060135   -0.139344   -0.785233
H       2.531761   -0.484986    1.908889
H       0.683571   -2.923178    1.302300
H       0.034311   -1.913093    2.597994
H      -1.658513   -2.924740    0.496888
H      -3.217624   -1.010476    1.009508
H      -1.895924   -0.198556    1.970433
H      -1.785336   -0.834191   -1.079286
