20

C      -0.393676    1.351485    0.049945
C      -0.126760   -0.124855    0.047885
C      -0.892792   -1.117643   -0.833778
C      -0.965859   -2.028077    0.415690
N      -0.263291   -1.012911    1.276304
C       1.083710   -0.768339    0.657170
C       1.908367   -1.860885   -0.009528
C       1.899327    0.073075    1.505622
C       2.629113    0.748860    2.181423
H      -0.057522    1.799100   -0.893198
H      -1.466234    1.549008    0.151351
H       0.131086    1.847058    0.868799
H      -1.869663   -0.729963   -1.130603
H      -0.384725   -1.491488   -1.727284
H      -1.979594   -2.168941    0.795403
H      -0.473667   -3.003359    0.370012
H       1.351457   -2.428652   -0.755221
H       2.770053   -1.408135   -0.507822
H       2.288430   -2.557990    0.743952
H       3.259714    1.346027    2.792297
