17

C      -0.089944    1.556800   -0.009424
C      -0.009453    0.048525   -0.012833
O      -1.173747   -0.589046   -0.447551
C       1.289119   -0.652264   -0.257697
C       0.674898   -0.685099    1.162544
C       1.316614    0.099492    2.187557
C       1.856644    0.750289    3.042254
C       0.104395   -1.929161    1.612032
C      -0.349192   -2.966667    2.013602
H       0.803783    2.006717    0.426326
H      -0.196771    1.926465   -1.036256
H      -0.961851    1.883871    0.564108
H      -1.217318   -0.502708   -1.406490
H       1.257699   -1.593720   -0.792972
H       2.192627   -0.065369   -0.376097
H       2.326649    1.317670    3.806757
H      -0.763648   -3.878174    2.366082
