16

C       0.173790    1.500100    0.180633
C      -0.105611    0.006427   -0.039255
C       0.486261   -0.502851   -1.316319
C       0.073031   -0.186456   -2.769991
C       0.547001   -1.632240   -3.113391
O       0.432418   -2.332596   -4.073575
C       0.994501   -1.859060   -1.674344
O       1.888580   -0.759790   -1.381533
H       1.250110    1.691111    0.218885
H      -0.248476    2.106301   -0.627367
H      -0.267290    1.840950    1.121346
H       0.306788   -0.578716    0.789651
H      -1.187232   -0.174718   -0.056164
H      -1.004161   -0.091415   -2.938860
H       0.602849    0.643263   -3.241371
H       1.109443   -2.767408   -1.094101
