18

C      -0.140568    1.519913    0.048424
N       0.051470    0.081956   -0.071318
C       0.503823   -0.727312   -1.180937
C       1.334367   -0.220685   -2.362092
C       1.665241    1.235087   -2.502713
C       2.646430    0.301171   -1.810933
C       2.625299    0.063817   -0.314221
O       3.563473    0.226850    0.426368
C       1.313626   -0.613746    0.085629
H       0.775668    2.121008   -0.006973
H      -0.839526    1.863293   -0.719852
H      -0.597335    1.715606    1.024593
H      -0.122633   -1.592485   -1.384647
H       1.307919   -0.838087   -3.252617
H       1.984131    1.563491   -3.486690
H       1.126716    1.987973   -1.951074
H       3.605876    0.145011   -2.290042
H       1.382953   -1.351429    0.882304
