18

C      -0.141991    1.485025   -0.180331
N      -0.178322    0.036383   -0.257510
C      -1.179004   -0.711373    0.265953
O      -2.144504   -0.190659    0.855995
C      -1.079794   -2.172398    0.109121
C      -1.689121   -3.025157    1.261219
O      -2.135146   -2.431597    2.424278
C      -2.429770   -2.936888   -0.028498
O      -3.621382   -2.254447   -0.163761
H       0.748688    1.828552    0.356365
H      -0.146373    1.933499   -1.179512
H      -1.031485    1.808266    0.359890
H       0.574804   -0.441447   -0.723797
H      -0.212876   -2.561677   -0.415316
H      -1.154478   -3.946452    1.473400
H      -2.387422   -1.518042    2.206107
H      -2.396291   -3.798437   -0.688996
H      -3.507523   -1.384712    0.256242
