17

C      -0.009859    1.550078   -0.051956
N       0.131519    0.099229   -0.040740
C       0.667516   -0.591775   -1.196278
C       2.217513   -0.640673   -1.174738
N       2.925726    0.257055   -0.308411
C       2.352261    0.311469    0.948287
O       2.668768    1.049391    1.854741
C       1.123327   -0.604896    0.851943
C       1.414055   -1.572155   -0.320488
H       0.900164    2.104134   -0.328166
H      -0.796637    1.808346   -0.768432
H      -0.327972    1.886765    0.938573
H       0.085198   -0.734094   -2.101021
H       2.746933   -1.017158   -2.041638
H       3.467178    1.039651   -0.642452
H       0.723060   -0.946852    1.804594
H       1.453845   -2.651590   -0.306518
