15

O      -0.123224    1.344671   -0.035783
N       0.024650   -0.055456   -0.064400
C      -1.096984   -0.637855   -0.057325
C      -1.479295   -2.095420    0.061482
C      -2.533731   -2.308935   -1.049512
C      -3.700673   -2.143263   -0.153293
C      -2.727487   -1.632483    0.939394
C      -2.562787   -0.305877    0.118201
N      -3.296061   -1.001671   -1.029657
H       0.792754    1.642909   -0.042524
H      -0.789223   -2.890330    0.327942
H      -2.431871   -2.811102   -2.002541
H      -4.695219   -2.570903   -0.152145
H      -2.763826   -1.715498    2.021293
H      -2.950065    0.677042    0.366651
