16

O       0.202475    1.492082   -0.102536
C       0.121315    0.080411   -0.047699
C       0.776949   -0.617703   -1.252947
N       0.035977   -0.310213   -2.460644
C       0.461319    0.860244   -3.221062
C       0.739697   -0.511348   -3.725220
C       0.692345   -0.437285    1.212574
N       1.176294   -0.825203    2.187614
H       1.124315    1.747639    0.019433
H      -0.948458   -0.151342   -0.067574
H       1.841879   -0.320660   -1.302507
H       0.748815   -1.700998   -1.089176
H      -0.337728    1.458328   -3.647561
H       1.305390    1.433867   -2.844245
H       1.771506   -0.856995   -3.684993
H       0.146931   -0.940856   -4.527144
