20

C      -0.467854    1.324133   -0.150211
C       0.198178   -0.042820    0.063709
C       0.844591   -0.609472   -1.194098
C       2.098206    0.118861   -1.641925
C       0.763446   -2.031881   -1.585699
C      -0.528325   -2.737486   -1.179706
C      -1.231940   -1.568509   -1.887431
O      -2.361698   -1.240150   -2.080537
N      -0.011716   -0.969214   -2.391173
H       0.250205    2.081491   -0.477456
H      -1.257155    1.257193   -0.904001
H      -0.917695    1.676418    0.782444
H       0.979644    0.037820    0.829537
H      -0.544717   -0.738778    0.463471
H       2.869008    0.053126   -0.866290
H       2.489783   -0.313831   -2.565135
H       1.891939    1.175557   -1.830445
H       1.601647   -2.537307   -2.052852
H      -0.684973   -3.672782   -1.724179
H      -0.739760   -2.901797   -0.120906
