15

O       0.011213    0.051423    0.282985
C       0.007944    1.248746    0.110267
N      -1.079065    2.079783    0.202616
C      -0.880136    3.457916   -0.214506
C       0.651179    3.577523   -0.322292
C       1.436044    3.810502    0.987112
O       1.970319    2.467855    0.968566
C       1.213202    2.144685   -0.218642
H      -1.991164    1.690657    0.384381
H      -1.364088    3.659289   -1.179634
H      -1.293970    4.163567    0.516192
H       0.968103    4.188210   -1.166023
H       2.232810    4.561012    0.936686
H       0.819515    3.998896    1.875540
H       1.836413    1.718436   -1.008810
