21

C      -0.194447    1.525179   -0.019092
C       0.006394    0.019556   -0.002724
O       0.836266   -0.394722   -1.119062
C       1.918084   -1.148738   -0.556362
C       2.819363   -0.164649    0.196599
O       2.010056    0.196278    1.333803
C       0.778421   -0.549962    1.214925
C       0.060340   -0.542071    2.543133
C       1.261087   -1.885174    0.617028
H       0.743087    2.041571    0.198184
H      -0.556894    1.841445   -1.000949
H      -0.937704    1.822359    0.728509
H      -0.968001   -0.484473   -0.093340
H       2.396383   -1.730144   -1.344287
H       3.762135   -0.612876    0.537947
H       3.037292    0.719931   -0.411016
H      -0.175508    0.481009    2.850324
H      -0.874170   -1.107500    2.479288
H       0.688651   -0.990540    3.317392
H       0.455080   -2.550207    0.301185
H       1.959448   -2.409921    1.272608
