14

O      -0.185273    1.338372   -0.202895
C      -0.055544    0.009053   -0.148817
N      -0.043980   -0.834998   -1.156192
C       0.114904   -2.032243   -0.516138
N       0.197904   -1.972485    0.797173
N       0.082030   -0.623716    1.032885
C       0.138377   -0.095105    2.372104
C       1.497186   -0.330090    3.033886
O       1.679282   -0.167232    4.208304
H      -0.276045    1.574907   -1.134891
H       0.169623   -2.972580   -1.043949
H      -0.044678    0.982717    2.322554
H      -0.640279   -0.543531    2.995983
H       2.302156   -0.650278    2.338102
