20

C      -0.015177    1.585066   -0.013576
C      -0.042237    0.055725   -0.049096
C       0.754385   -0.520584   -1.236787
C       0.785963   -2.014641   -1.258674
N       1.750448   -2.766369   -0.744174
C       1.311162   -4.030475   -0.974816
N       0.147513   -4.119224   -1.595000
N      -0.181951   -2.813044   -1.774288
C      -1.438268   -2.475697   -2.408895
H       1.010155    1.960071    0.075160
H      -0.445988    2.012841   -0.925973
H      -0.585981    1.970570    0.836453
H       0.374998   -0.350704    0.878932
H      -1.080548   -0.295875   -0.099084
H       0.346909   -0.130051   -2.177518
H       1.792925   -0.182216   -1.176608
H       1.865564   -4.911071   -0.685410
H      -2.275052   -2.609883   -1.716370
H      -1.412942   -1.437023   -2.740848
H      -1.586208   -3.127950   -3.271217
