20

C       1.340850    0.923678   -0.101777
C       0.388561   -0.256043   -0.118611
O       0.664018   -1.024846   -1.308740
C      -0.079607   -2.140133   -1.475816
O      -0.951905   -2.484858   -0.720503
C       0.373858   -2.897630   -2.710721
C       1.594388   -3.750153   -2.401716
C       2.687204   -3.877814   -3.396805
N       2.894883   -3.112795   -2.155228
H       2.380919    0.586257   -0.078296
H       1.201221    1.552303   -0.985853
H       1.157824    1.534725    0.787023
H       0.517750   -0.901833    0.755199
H      -0.658711    0.061087   -0.140226
H      -0.454787   -3.529959   -3.039352
H       0.612877   -2.182599   -3.504256
H       1.392819   -4.589955   -1.739924
H       3.257621   -4.799499   -3.468372
H       2.580671   -3.338527   -4.335116
H       2.820110   -2.114259   -2.335263
