20

C      -0.080199    1.591216   -0.097693
C       0.184562    0.101003   -0.095035
C       1.589180   -0.430647    0.057717
O       2.612808    0.492642    0.257206
C       0.579718   -0.664437    1.161891
C       0.731664    0.002653    2.515769
C       1.761114   -0.679897    3.412976
O       3.064522   -0.453445    2.868187
H       0.724779    2.137119    0.397425
H      -0.135220    1.961992   -1.126837
H      -1.028055    1.837094    0.394048
H      -0.447631   -0.461232   -0.777919
H       1.869968   -1.290252   -0.552798
H       3.063475    0.230134    1.074819
H       0.188715   -1.678421    1.226944
H       1.019927    1.051850    2.407040
H      -0.231183   -0.004606    3.042162
H       1.704261   -0.267675    4.431117
H       1.553037   -1.758431    3.474803
H       3.694580   -1.034327    3.302859
