19

C      -0.027271    1.481881    0.100183
C      -0.042929   -0.002256   -0.018607
C      -0.064143   -0.807873   -1.078375
C       0.011995   -2.242306   -0.500233
O      -0.759087   -2.067647    0.703376
C       0.035355   -0.979492    1.191561
C       1.450952   -1.628572    1.174870
C       2.532649   -1.305548    2.145749
C       1.423514   -2.426296    0.109292
H       0.890585    1.834154    0.589736
H      -0.089882    1.964514   -0.879070
H      -0.863622    1.843447    0.712018
H      -0.062695   -0.554307   -2.129192
H      -0.381462   -3.052829   -1.111957
H      -0.330340   -0.611238    2.151179
H       2.221246   -1.516125    3.176886
H       3.440842   -1.879457    1.941782
H       2.794817   -0.239547    2.112154
H       2.214329   -3.031393   -0.311402
