16

O       0.009870   -0.077394   -0.037344
C      -0.061544    1.128996    0.004994
C      -1.375509    1.882889    0.070701
C      -1.420596    3.035730   -0.944430
C      -0.701880    4.281393   -0.416957
O       0.353392    4.003118    0.520172
C       1.407708    3.216688    0.191492
O       2.540001    3.613172    0.221558
N       1.115407    1.881819   -0.082078
H      -2.150279    1.140833   -0.126525
H      -1.526630    2.262862    1.087738
H      -0.982435    2.703624   -1.891285
H      -2.459099    3.305165   -1.161171
H      -0.302194    4.895012   -1.232156
H      -1.389896    4.898742    0.164881
H       1.944948    1.314170   -0.203805
