17

C      -0.492805    1.369000    0.336623
C       0.429149    0.253406   -0.188699
C       1.154125   -0.435764    0.872997
C       1.736718   -0.993064    1.766397
C       2.438320   -1.675764    2.838339
C       1.586765   -2.692387    3.609911
O       0.427243   -2.926110    3.371005
C       2.305605   -3.368539    4.679139
C       2.916931   -3.917497    5.558783
H       0.082811    2.130302    0.870148
H      -1.017450    1.851676   -0.493265
H      -1.236751    0.962910    1.026948
H      -0.164290   -0.477833   -0.752136
H       1.146373    0.675161   -0.904665
H       3.320688   -2.214095    2.463310
H       2.837042   -0.965011    3.576522
H       3.438297   -4.414136    6.340985
