20

C      -0.097710    1.467203    0.021731
N       0.331249    0.082836   -0.013407
C       0.348086   -0.656129   -1.159633
O       0.048808   -0.196882   -2.249803
C       0.744074   -2.118176   -0.965941
C       1.332893   -2.720350   -2.237576
C       1.258712   -4.238863   -2.284580
C       2.005928   -4.905059   -3.425936
O       0.634190   -4.880469   -1.469472
H       0.681869    2.113584    0.439502
H      -0.299697    1.768991   -1.006475
H      -1.010727    1.591764    0.615444
H       0.570551   -0.371494    0.852135
H       1.431584   -2.227292   -0.120119
H      -0.155422   -2.684879   -0.697560
H       0.782765   -2.321190   -3.100141
H       2.372053   -2.405307   -2.394555
H       3.085442   -4.767621   -3.292145
H       1.778551   -5.971397   -3.448420
H       1.744715   -4.443887   -4.384352
