16

N      -0.027870    1.403740    0.204644
C       0.007414    0.008546    0.050324
C      -1.159839   -0.748764   -0.007243
N      -1.151354   -2.088316   -0.082875
C       0.000458   -2.714610   -0.114292
O       0.010672   -4.078827   -0.188358
C       1.252897   -2.065665   -0.071374
N       2.423411   -2.812289   -0.169474
C       1.229349   -0.680486    0.017923
H       0.748720    1.881337   -0.232322
H      -0.900424    1.816561   -0.096229
H      -2.134735   -0.268260    0.015889
H      -0.917084   -4.347609   -0.190248
H       2.302226   -3.783792    0.078128
H       3.231857   -2.400027    0.272879
H       2.164713   -0.128809    0.065139
