21

C      -1.024254    0.977849   -0.250900
C      -0.058992   -0.200036   -0.120460
C       1.182408   -0.141620   -1.027302
O       1.707045    1.179616   -0.992769
C       2.097994   -1.166393   -0.350260
O       1.792909   -1.145439    1.040238
C       0.558597   -0.435778    1.275495
C       0.897733    0.807572    2.100486
O       1.596864    0.435022    3.274185
H      -0.523124    1.928168   -0.060039
H      -1.443371    1.019359   -1.261133
H      -1.858955    0.876538    0.449936
H      -0.589424   -1.120407   -0.394680
H       0.945688   -0.433558   -2.060417
H       2.538615    1.188839   -1.476353
H       1.918643   -2.172123   -0.760189
H       3.159798   -0.928317   -0.490194
H      -0.076680   -1.088181    1.887798
H       1.479994    1.506571    1.484775
H      -0.018974    1.312822    2.422807
H       2.301445   -0.152308    2.973528
