20

C       0.009318    1.582587   -0.018802
C       0.020802    0.052652   -0.025016
C       0.756584   -0.495060   -1.254636
O       0.793087   -1.914347   -1.273879
C       1.466905   -2.453910   -0.164039
C       0.786596   -2.063377    1.168152
C       0.667835   -0.521588    1.245262
C      -0.524166   -2.706952    1.298656
N      -1.556613   -3.213007    1.416893
H       1.027291    1.987654    0.022920
H      -0.471248    1.979053   -0.919183
H      -0.537397    1.967451    0.847706
H      -1.013499   -0.311543   -0.076051
H       0.254147   -0.194421   -2.178440
H       1.785465   -0.092491   -1.281515
H       1.476147   -3.538457   -0.296430
H       2.510561   -2.097340   -0.125315
H       1.410600   -2.425331    1.994549
H       1.682852   -0.116657    1.353831
H       0.106401   -0.227049    2.137118
