19

C       0.004753    1.435925   -0.173734
O       0.003390    0.016188   -0.052804
C       0.583263   -0.681984   -1.036376
C       0.701741   -2.022541   -1.209140
C       1.429301   -2.191240   -2.444941
C       1.807257   -3.502600   -3.060872
C       1.691069   -0.943865   -2.920041
C       2.383547   -0.400371   -4.115937
O       1.167444    0.000407   -2.047547
H       1.025188    1.832153   -0.197779
H      -0.521827    1.758521   -1.078076
H      -0.515504    1.807535    0.709675
H       0.325621   -2.789264   -0.552260
H       0.921710   -4.111224   -3.278528
H       2.354634   -3.368688   -3.997645
H       2.441314   -4.091625   -2.387826
H       1.714475    0.210018   -4.735227
H       3.239023    0.230171   -3.843348
H       2.756510   -1.219389   -4.734956
