17

O       0.114414    1.354750    0.088394
C       0.063559   -0.057538    0.171469
C      -1.356097   -0.581169   -0.095980
N      -1.438261   -2.022126   -0.012900
C      -1.959195   -2.782231    0.977946
C      -1.739625   -4.104668    0.650390
C      -1.058642   -4.030699   -0.582060
O      -0.632510   -5.084588   -1.308922
N      -0.869109   -2.782663   -0.988781
H       0.059052    1.601761   -0.840086
H       0.764701   -0.545154   -0.518264
H       0.363617   -0.320565    1.190954
H      -2.049860   -0.154664    0.633134
H      -1.681900   -0.271817   -1.095597
H      -2.446910   -2.331994    1.828844
H      -2.029064   -4.984535    1.198806
H      -0.210264   -4.728976   -2.100796
