15

O      -0.258534    0.313032   -0.651703
C       0.068706    1.117932    0.186612
C       1.291935    1.940875    0.101474
N       1.757892    2.907161    1.102940
C       2.088679    3.881151    0.005643
C       1.760534    2.832256   -1.061894
C       2.457900    1.524728   -0.781630
C       3.799067    1.452077   -0.265707
N       4.885615    1.394648    0.124736
H      -0.556239    1.310925    1.087135
H       0.997170    3.244781    1.683834
H       1.397249    4.726511   -0.038207
H       3.118539    4.247353    0.041893
H       1.283172    3.006104   -2.017163
H       2.185193    0.734092   -1.474157
