12

O       0.083502    1.338447   -0.064313
C       0.067983    0.003374   -0.046165
C       0.039879   -0.695781   -1.258821
C       0.025328   -2.077426   -1.147529
N       0.036904   -2.727567    0.031479
C       0.063697   -1.947116    1.103939
N       0.079965   -0.611058    1.131701
C      -0.003756   -2.888777   -2.338551
N      -0.027052   -3.513052   -3.311137
H       0.102067    1.631203    0.859165
H       0.030360   -0.184645   -2.211633
H       0.073506   -2.447365    2.068658
