17

C       0.395680    0.750126    1.303163
C       0.127681   -0.017941    0.020765
O       0.879842    0.030337   -0.925951
C      -1.163170   -0.820948    0.011055
C      -1.537378   -1.677814   -1.246491
C      -0.422031   -2.693527   -0.798727
C      -1.121973   -2.315426    0.549124
C      -2.424496   -2.456002   -0.261461
O      -3.514597   -2.925568   -0.169746
H       1.380472    1.215782    1.255389
H      -0.366483    1.526249    1.439446
H       0.333138    0.088872    2.174182
H      -1.970038   -0.219471    0.442949
H      -1.748711   -1.313768   -2.248185
H      -0.532729   -3.726109   -1.133141
H       0.594036   -2.329104   -0.923820
H      -0.884253   -2.649600    1.556756
