18

N       0.007750   -1.201748   -0.017261
C      -0.000938   -0.045237   -0.003382
C      -0.039622    1.407296   -0.014808
C      -0.118732    2.070517    1.402911
C       1.414313    1.755995    1.511250
C       1.366696    2.098889   -0.018797
C       1.028523    3.601084    0.045155
C      -0.354326    4.103374   -0.289812
C      -0.070047    3.580101    1.096600
H      -0.765636    1.715160   -0.767217
H      -0.842129    1.717432    2.136294
H       2.010959    2.413087    2.147751
H       1.635323    0.707406    1.721240
H       2.137826    1.774350   -0.715830
H       1.856478    4.299312    0.082237
H      -0.441329    5.183412   -0.359161
H      -1.008590    3.588764   -0.983670
H      -0.083038    4.262268    1.938555
