16

N       0.009134    1.432110    0.153532
C       0.042016    0.035184    0.035817
C      -1.016344   -0.835812    0.007091
O      -0.586062   -2.153945   -0.020983
C       0.752418   -2.081936   -0.021308
C       1.210454   -0.799720    0.016584
C       2.673991   -0.854453    0.022612
C       3.060078   -2.147089   -0.012567
C       1.855731   -3.084706   -0.044099
H       0.729231    1.884465   -0.395182
H      -0.890144    1.826747   -0.090813
H      -2.084021   -0.696190    0.014316
H       3.338296   -0.000260    0.055849
H       4.078282   -2.511724   -0.015592
H       1.846457   -3.762835    0.819260
H       1.854386   -3.718202   -0.940834
