21

C      -0.020150    1.483298   -0.774695
C       0.156420   -0.034704   -0.703827
C      -1.113561   -0.750637   -1.156114
C       1.478358   -0.527335   -1.377080
C       2.144386   -0.691698    0.040677
C       3.152970    0.382133    0.313071
O       2.943350    1.418263    0.907787
C       0.729711   -0.524758    0.677450
O       0.575253    0.254369    1.825645
H       0.885442    2.021485   -0.483430
H      -0.278872    1.788801   -1.794733
H      -0.825430    1.805721   -0.107554
H      -1.374619   -0.487597   -2.187863
H      -0.998024   -1.839251   -1.108602
H      -1.961445   -0.476054   -0.518250
H       1.377720   -1.486897   -1.888687
H       1.963427    0.178890   -2.056508
H       2.635752   -1.658156    0.194630
H       4.163969    0.184185   -0.107652
H       0.316529   -1.511752    0.913255
H       1.190048    0.998188    1.748121
