21

C      -0.035920    1.540198    0.107918
C       0.036247    0.048065    0.028688
C      -0.009473   -0.709665   -1.069087
C       0.040342   -2.189019   -0.766492
C       0.997830   -2.997754   -1.673617
C       0.583381   -3.023975   -3.071197
C       0.216197   -3.032207   -4.216178
C       0.460978   -2.214565    0.727101
C       0.120304   -0.809484    1.276443
H       0.849764    1.954214    0.606962
H      -0.113057    1.995498   -0.883075
H      -0.902465    1.863642    0.699400
H      -0.110447   -0.335089   -2.082225
H      -0.961759   -2.625205   -0.890722
H       2.006803   -2.571641   -1.596420
H       1.066862   -4.026435   -1.295956
H      -0.096939   -3.046654   -5.230450
H      -0.016840   -3.023317    1.286489
H       1.543621   -2.375833    0.789200
H       0.865873   -0.443183    1.992752
H      -0.841860   -0.800124    1.809347
