23

C       0.041687    1.591623    0.173281
C       0.031461    0.085706   -0.071060
C       1.257826   -0.497702   -0.839968
C       1.311915   -1.663658    0.186912
C       0.427103   -0.813550    1.141524
C       0.656354   -2.954949   -0.293757
C      -0.734535   -2.854805   -0.860890
C      -1.524551   -1.791409   -1.022594
C      -1.301481   -0.338042   -0.697438
H       0.988466    1.911328    0.621134
H      -0.089282    2.147980   -0.762754
H      -0.766219    1.890551    0.852088
H       1.110172   -0.761721   -1.891413
H       2.130578    0.157491   -0.763260
H       2.309927   -1.899284    0.567760
H       1.025089   -0.262823    1.873626
H      -0.381924   -1.329027    1.667641
H       1.302235   -3.421751   -1.053588
H       0.634780   -3.675545    0.538519
H      -1.138752   -3.813968   -1.183224
H      -2.503816   -1.978105   -1.462881
H      -2.117672   -0.013547   -0.032469
H      -1.450692    0.239997   -1.623319
