21

C       0.161598    1.489700   -0.151401
C      -0.044158   -0.018641    0.037475
C      -1.524761   -0.494343    0.049023
C      -2.275380    0.004804    1.303434
O      -1.633531   -0.342765    2.510886
C      -2.289917   -0.043781   -1.219641
O      -1.664105   -0.432733   -2.431365
C      -1.479694   -2.015389    0.047460
O      -1.673739   -2.713919    1.017559
H       1.229122    1.726438   -0.116920
H      -0.220436    1.853904   -1.111750
H      -0.327666    2.065765    0.638748
H       0.499867   -0.562649   -0.745157
H       0.395622   -0.321242    0.992006
H      -2.341351    1.098102    1.284682
H      -3.307635   -0.379494    1.272885
H      -1.633867   -1.309952    2.529197
H      -3.281389   -0.509753   -1.237667
H      -2.451293    1.042883   -1.178809
H      -0.875156    0.104863   -2.549647
H      -1.237024   -2.469623   -0.935193
