15

O      -0.213707    1.460823   -0.131408
C      -0.072476    0.080608   -0.012350
C      -1.342373   -0.741831    0.098177
C      -2.691537   -0.047568    0.002189
N      -3.100204    0.378587   -1.331756
C      -2.288606    0.310653   -2.289509
O      -0.994576   -0.136510   -2.311214
C      -0.517466   -0.788862   -1.160021
H       0.048404    1.711117   -1.025016
H       0.797702   -0.241637    0.557120
H      -1.302411   -1.618638    0.735904
H      -3.467054   -0.723301    0.377618
H      -2.713296    0.839839    0.645461
H      -2.563011    0.644864   -3.287678
H       0.046038   -1.674783   -1.429539
