12

O      -0.072086   -0.047597   -0.000551
C      -0.022317    1.156356    0.007949
N       1.170358    1.868209    0.000019
C       2.462724    1.320299   -0.018582
C       3.328828    2.346130   -0.020317
N       2.596182    3.535046   -0.003084
C       1.237642    3.286016    0.010080
O       0.315015    4.068365    0.026431
H      -0.890536    1.832472    0.022888
H       2.605334    0.254988   -0.028345
H       4.405163    2.344803   -0.032279
H       2.964859    4.469860    0.000138
