23

C      -0.370680    1.412661   -0.167623
C       0.056878   -0.046425   -0.064894
C       1.460856   -0.384331   -0.613526
O       1.954491   -0.711596    0.699396
C       0.636618   -0.562873    1.285300
C       0.633212    0.327163    2.519593
C       1.335630   -0.310003    3.701642
C       2.838808   -0.272863    3.801813
C       1.999821    0.545799    4.751547
H       0.416302    2.091145    0.176386
H      -0.595733    1.670041   -1.208331
H      -1.270274    1.612945    0.423667
H      -0.734342   -0.690366   -0.458226
H       1.505290   -1.243922   -1.295508
H       2.012796    0.451383   -1.063369
H       0.232692   -1.551390    1.554066
H       1.113372    1.282408    2.278147
H      -0.410247    0.551722    2.783004
H       0.858993   -1.218336    4.063521
H       3.351376   -1.146355    4.189199
H       3.375394    0.241598    3.013356
H       1.978862    1.622436    4.614708
H       1.937130    0.231924    5.787826
