16

O       0.082154    1.455640   -0.065731
C       0.036297    0.049861   -0.030222
C       0.261075   -0.566685    1.382625
C      -1.283161   -0.627791    1.555375
O      -1.666137    0.615963    2.157904
C      -1.402977   -0.548244   -0.001588
C      -1.887316   -1.760247    2.238438
C      -2.410680   -2.693933    2.786805
H      -0.473487    1.767137    0.660984
H       0.693312   -0.301498   -0.827883
H       0.697948   -1.566175    1.339792
H       0.788924    0.045701    2.116196
H      -2.629732    0.657949    2.154798
H      -2.207595    0.080179   -0.391912
H      -1.453242   -1.541619   -0.453925
H      -2.862805   -3.519967    3.278237
