18

O      -0.000920    1.305215   -0.206909
C      -0.019470   -0.111244   -0.140464
C      -1.457080   -0.543901    0.118868
C      -1.609821   -2.064851    0.208164
C      -3.051754   -2.480020    0.475326
O      -3.147080   -3.901217    0.642531
C      -3.697026   -4.621171   -0.351200
O      -3.782746   -5.811640   -0.319814
H       0.904035    1.588793   -0.365556
H       0.339939   -0.561496   -1.080440
H       0.631143   -0.483807    0.667630
H      -1.797120   -0.072049    1.048872
H      -2.087942   -0.141984   -0.683652
H      -1.271764   -2.536622   -0.723373
H      -0.978700   -2.466997    1.009475
H      -3.422495   -2.035961    1.404165
H      -3.711992   -2.154427   -0.339727
H      -4.062765   -3.989518   -1.185811
