15

O      -0.133012    0.138763    1.061631
C      -0.078794    1.208726    0.526033
O      -1.148033    2.018433    0.248119
N      -0.712062    3.211884   -0.382469
C       0.566736    3.083495   -0.467493
N       1.032529    1.902736    0.042126
C       2.394377    1.476043    0.171264
C       2.760925    0.106099   -0.323495
C       3.228581    1.321434   -1.078102
H       1.207232    3.833975   -0.906571
H       2.885429    1.836663    1.069944
H       3.476788   -0.454002    0.265481
H       1.966804   -0.490048   -0.754192
H       2.751804    1.537518   -2.027479
H       4.271257    1.610479   -1.018445
