20

C      -0.240176    1.351948    0.037578
O      -0.143837   -0.050544   -0.053732
C       0.739917   -0.480347   -1.067820
C       0.720743   -1.997634   -1.061736
N      -0.538716   -2.591049   -1.518481
C      -0.008079   -3.273310   -2.584638
O      -0.488918   -3.970116   -3.438167
C       1.419653   -2.770087   -2.235063
C       2.163929   -2.020319   -3.332610
H       0.732090    1.812647    0.272878
H      -0.613432    1.797437   -0.897809
H      -0.942729    1.579406    0.842784
H       0.419491   -0.090651   -2.046979
H       1.763148   -0.113041   -0.877375
H       1.017959   -2.345934   -0.065803
H      -1.480210   -2.502537   -1.166421
H       2.035599   -3.590372   -1.854510
H       1.567454   -1.205744   -3.753135
H       3.107264   -1.602512   -2.966973
H       2.395355   -2.710142   -4.149420
