19

C      -0.099746    1.282746    0.514409
N      -0.074699   -0.164245    0.395451
C      -1.126240   -0.781187    0.041110
C      -2.458870   -0.154905   -0.290466
N      -1.002955   -2.193900   -0.139053
C      -2.020034   -3.094386    0.180215
N      -3.092552   -2.739015    0.764072
C       0.243250   -2.704149   -0.533518
N       0.478193   -3.951583   -0.583841
H       0.824939    1.612819    0.994074
H      -0.154168    1.770883   -0.469085
H      -0.943905    1.649663    1.112777
H      -3.074782   -0.808394   -0.904615
H      -3.024509    0.056078    0.621045
H      -2.288263    0.788803   -0.816908
H      -1.745788   -4.106789   -0.116918
H      -3.695714   -3.550080    0.889762
H       0.935460   -1.900809   -0.781235
H       1.417964   -4.113410   -0.938826
