21

C       0.321789    1.146049   -0.684665
C      -0.217617    0.732624    0.683580
N      -1.402339   -0.111375    0.535906
C      -1.948259   -0.767835    1.757002
C      -2.577658   -1.909162    0.902878
N      -2.017494   -3.045543    1.690696
C      -0.937673   -2.000329    1.769973
C       0.322769   -2.277824    2.539928
C      -1.204983   -1.568686    0.269092
H       1.168908    1.830835   -0.579004
H       0.666501    0.275594   -1.253319
H      -0.459490    1.640550   -1.268599
H       0.588434    0.261185    1.269571
H      -0.528066    1.625689    1.240852
H      -2.379706   -0.215673    2.596539
H      -3.548851   -1.919475    0.410306
H      -2.498246   -3.118357    2.592335
H       0.789627   -3.195813    2.168005
H       1.045385   -1.463166    2.459605
H       0.097311   -2.424420    3.602886
H      -0.767311   -1.974344   -0.643455
