19

C      -0.280273    1.081128    0.031421
N      -0.114484   -0.358308   -0.082411
C       0.686724   -0.824605   -1.142673
C       1.161399   -2.114861   -1.259715
N       1.859378   -2.216095   -2.443671
C       1.846788   -1.004498   -3.082330
C       1.125092   -0.122819   -2.306353
O       1.055967   -3.175998   -0.415791
C      -0.238844   -3.787851   -0.408762
H       0.668638    1.640110    0.090690
H      -0.835502    1.458518   -0.833857
H      -0.869891    1.302926    0.924895
H       0.179823   -0.769589    0.794506
H       2.355086   -3.040983   -2.731832
H       2.357276   -0.861659   -4.020200
H       0.933228    0.911085   -2.545368
H      -0.477661   -4.213208   -1.391435
H      -0.202758   -4.587051    0.335220
H      -1.012260   -3.061451   -0.136017
