19

C      -0.089019    1.492263    0.033063
C       0.008228   -0.010677   -0.018959
C       0.684110   -0.650244   -1.268047
C       0.066443   -2.078488   -1.268905
C      -0.826432   -2.019748   -0.007717
C       0.041071   -2.071329    1.263849
C       0.683918   -0.677093    1.196671
O       1.529278   -0.209114    1.911229
O      -1.279330   -0.654716   -0.001834
H       0.909654    1.916588    0.167594
H      -0.525507    1.890440   -0.886871
H      -0.706440    1.805985    0.878878
H       0.398797   -0.087031   -2.160110
H       1.775056   -0.645082   -1.200057
H      -0.541991   -2.246687   -2.159878
H       0.814154   -2.873900   -1.216084
H      -1.688235   -2.686221   -0.010856
H      -0.582500   -2.144604    2.160543
H       0.794906   -2.861395    1.301768
