23

C      -0.180188    1.557731    0.089052
C       0.011129    0.040424   -0.032064
C       0.755451   -0.363429   -1.328955
C       2.282311   -0.183894   -1.206830
C       2.777686   -0.701293    0.150958
C       2.384168   -2.172628    0.424998
C       1.007321   -2.040826    1.131855
C       0.782747   -0.510627    1.185306
O       2.109235    0.028390    1.186670
H       0.783109    2.069942    0.158065
H      -0.722977    1.956155   -0.774353
H      -0.752085    1.810003    0.988932
H      -0.981232   -0.430322   -0.042851
H       0.537174   -1.414116   -1.553375
H       0.370801    0.211166   -2.178752
H       2.793996   -0.704156   -2.025306
H       2.552804    0.875064   -1.282581
H       3.849385   -0.520365    0.269570
H       2.336356   -2.764994   -0.492666
H       3.117637   -2.644375    1.082838
H       0.204489   -2.557780    0.599289
H       1.047916   -2.451903    2.143201
H       0.305224   -0.186802    2.115041
