21

C      -0.201610    1.520390   -0.159693
C      -0.281144    0.067362    0.273343
O      -1.191467   -0.601473   -0.590271
C      -1.364950   -1.941151   -0.290490
C      -2.232028   -2.372564    0.850178
C      -2.729618   -2.547198   -0.573068
C      -3.825351   -1.635651   -1.048386
C      -4.397809   -1.960217   -2.415479
O      -4.219086   -0.698304   -0.392009
H       0.487537    2.072218    0.486518
H       0.153257    1.596083   -1.191440
H      -1.187959    1.988413   -0.100547
H       0.709848   -0.412449    0.217940
H      -0.625881   -0.013872    1.314708
H      -0.505792   -2.570380   -0.533048
H      -1.960790   -3.254493    1.419022
H      -2.745757   -1.586814    1.393784
H      -2.716970   -3.535991   -1.019862
H      -4.833997   -2.966010   -2.416138
H      -5.161387   -1.229127   -2.682815
H      -3.600287   -1.958018   -3.167167
