20

C       0.111502    1.585785   -0.025396
C      -0.025409    0.053997    0.029923
O      -1.397158   -0.302604    0.098518
C       0.643102   -0.636350   -1.176568
C       2.124442   -0.784942   -0.776840
C       2.088807   -1.098677    0.736195
C       0.778672   -0.513844    1.199550
N       0.269879   -0.489571    2.362389
O       1.112692   -1.077262    3.319505
H       1.153952    1.903302   -0.135148
H      -0.462216    1.969362   -0.874111
H      -0.280675    2.028704    0.894755
H      -1.646407   -0.249377    1.029455
H       0.175632   -1.619616   -1.294210
H       0.500322   -0.082928   -2.108274
H       2.638081   -1.557731   -1.353504
H       2.660883    0.153585   -0.953336
H       2.077385   -2.178734    0.929183
H       2.938391   -0.699572    1.297943
H       0.596701   -0.995728    4.128815
