19

C      -0.418557    1.239268    0.995044
C       0.252023   -0.018590    0.479356
C       0.572289   -0.122033   -1.026184
C       2.041105   -0.319278   -0.568494
C       2.577738   -1.737140   -0.733519
C       3.040513    0.728119   -1.038190
O       1.657628   -0.078944    0.819751
H       0.072030    2.133627    0.598412
H      -1.473910    1.259795    0.700473
H      -0.368475    1.278191    2.087955
H      -0.272007   -0.903727    0.868494
H       0.121317   -0.958248   -1.563757
H       0.397082    0.801240   -1.584263
H       2.797519   -1.951784   -1.785246
H       3.500011   -1.863249   -0.157294
H       1.850908   -2.472712   -0.376676
H       2.646740    1.736143   -0.882145
H       3.978198    0.638303   -0.479708
H       3.263475    0.602291   -2.103541
