13

N       0.089293    1.407918    0.157645
C      -0.017098    0.028329    0.039970
C      -1.164688   -0.692291    0.008546
C      -1.144937   -2.151843   -0.024105
O      -2.150315   -2.833349   -0.043524
N       0.144010   -2.769072   -0.048673
C       1.183234   -2.026221   -0.021665
N       1.183613   -0.651795    0.012703
H       0.775717    1.833493   -0.453315
H      -0.801295    1.878962    0.077843
H      -2.127594   -0.196898   -0.000831
H       2.178864   -2.469336   -0.029223
H       2.045199   -0.153141    0.170420
