17

C       0.078347   -1.189284   -0.017340
C      -0.022547    0.012817   -0.014779
C      -0.077059    1.418555   -0.019491
C      -1.140844    2.238240   -0.004779
C      -0.611895    3.680517    0.036411
C       0.638605    3.491129   -0.876296
C       1.182217    2.334781    0.012835
C       1.179866    3.060686    1.369392
C       0.115525    3.862338    1.385531
H       0.147242   -2.248512   -0.018643
H      -2.184107    1.956557    0.026367
H      -1.329162    4.455435   -0.230816
H       0.388844    3.175711   -1.892943
H       1.295250    4.364933   -0.891881
H       2.111329    1.848748   -0.279149
H       1.897681    2.881137    2.157959
H      -0.242493    4.488800    2.191174
