20

C      -0.155014    1.530894   -0.014290
C       0.046585    0.013444    0.061989
C       0.664705   -0.569479   -1.205680
C       0.793066   -2.079598   -1.408450
C      -0.494903   -2.580561   -2.088142
C      -1.408421   -1.377037   -2.306099
C      -0.104760   -0.573216   -2.568715
C       0.610301   -1.948159   -2.899473
H       0.794730    2.047842   -0.192707
H      -0.834457    1.800557   -0.830233
H      -0.579087    1.925764    0.914138
H       0.702741   -0.226980    0.909391
H      -0.908662   -0.477953    0.278165
H       1.647264   -0.110184   -1.375552
H       1.440776   -2.770374   -0.882193
H      -0.765712   -3.628092   -2.047270
H      -1.987685   -1.491247   -3.226947
H      -2.073223   -1.045931   -1.500507
H      -0.117020    0.313245   -3.199754
H       1.195617   -2.302101   -3.735258
