20

C      -0.304416    1.613990   -0.294065
C      -0.038187    0.128481   -0.076479
C      -1.279765   -0.622605    0.391849
C       0.780404   -0.584853   -1.238263
C       1.877612   -0.746470   -0.204057
C       3.099086   -1.123005    0.308658
C       3.072951   -0.693170    1.674531
C       1.857925   -0.079146    1.945790
N       1.158634   -0.133351    0.771638
H       0.603144    2.129879   -0.618668
H      -1.076582    1.753324   -1.057705
H      -0.656034    2.085944    0.629535
H      -2.076970   -0.540476   -0.354152
H      -1.058994   -1.681563    0.550101
H      -1.655321   -0.205808    1.332407
H       0.321171   -1.506402   -1.608287
H       1.006291    0.063942   -2.089797
H       3.909242   -1.630051   -0.191041
H       3.871490   -0.822522    2.390641
H       1.473027    0.365771    2.848582
