19

C      -0.174922    1.602162   -0.022403
C      -0.001862    0.081587    0.004992
C      -1.269489   -0.572869   -0.288778
C      -2.347878   -1.042515   -0.538035
C       1.194175   -0.622272   -0.729596
C       2.452045    0.120065   -0.237892
C       2.104706    0.108315    1.286824
C       0.760619   -0.637233    1.174328
O       1.094869   -1.705585    0.240643
H       0.753105    2.134087    0.193093
H      -0.532672    1.921843   -1.005697
H      -0.924156    1.908262    0.713804
H      -3.289867   -1.481239   -0.755883
H       1.125637   -0.942701   -1.768598
H       3.349136   -0.457768   -0.467813
H       2.567447    1.120651   -0.661266
H       2.815715   -0.475709    1.874108
H       2.021869    1.102204    1.733002
H       0.250111   -0.972909    2.076326
