19

C       0.119221    1.551819   -0.000402
C       0.030896    0.041309   -0.082445
C      -1.187012   -0.577017    0.498612
O      -2.089372    0.020361    1.034365
C       0.638669   -0.792056   -1.233276
C       1.623856   -0.109430   -2.167275
C       2.740559    0.402070   -1.223133
O       2.525003   -0.191699    0.069235
C       1.294374   -0.839445    0.091681
H       1.032320    1.867209    0.511129
H       0.093660    2.028099   -0.985497
H      -0.739669    1.913889    0.568991
H      -1.216437   -1.689481    0.415351
H       0.053634   -1.621284   -1.614840
H       2.007761   -0.847642   -2.877498
H       1.182267    0.705730   -2.747549
H       3.743074    0.118654   -1.558668
H       2.709259    1.491611   -1.125209
H       1.277559   -1.687238    0.767019
