12

O       0.051561    1.317843    0.115395
C      -0.089227    0.003694   -0.022932
C      -1.233410   -0.668312    0.151174
C      -1.237430   -2.093300   -0.032755
N      -2.231922   -2.856544    0.095310
O       0.020792   -2.652513   -0.392576
C       1.155164   -1.962897   -0.562198
O       2.189259   -2.459324   -0.862653
O       1.083632   -0.595339   -0.368475
H       0.971811    1.553094   -0.064220
H      -2.146954   -0.165517    0.425010
H      -1.982414   -3.827804   -0.087645
