13

O      -0.048910   -0.068011    0.002486
C       0.014764    1.133916    0.008759
N      -1.191556    1.860183    0.028661
C      -1.534657    3.184734    0.040975
N      -0.827015    4.254196    0.037065
C       0.544858    4.287159    0.018103
C       1.486124    3.310817    0.000773
C       1.374670    1.860000   -0.004271
O       2.354924    1.144964   -0.019715
H      -1.974010    1.214575    0.035367
H      -2.617336    3.310079    0.056767
H       0.921633    5.308157    0.017602
H       2.522857    3.633879   -0.011773
