20

O       0.056643    1.019021   -0.938199
C       0.002668   -0.139410   -0.139389
C       0.145671   -0.004708    1.402391
N      -1.128610   -0.766124    1.620842
C      -2.289110    0.147915    1.887657
C      -2.560506    0.285803    0.384724
C      -3.894861    0.319046   -0.303049
C      -2.966177    1.504703   -0.390713
C      -1.413509   -0.690367    0.121695
H       0.980663    1.241406   -1.088493
H       0.657539   -0.924647   -0.541217
H       1.015000   -0.490349    1.856378
H       0.100375    1.037852    1.739141
H      -3.078655   -0.362240    2.451099
H      -2.014060    1.064163    2.423888
H      -4.026871   -0.296012   -1.188059
H      -4.780782    0.400568    0.319472
H      -3.219185    2.395864    0.175604
H      -2.455590    1.697889   -1.325677
H      -1.680789   -1.618830   -0.392685
