23

C       0.054357    1.359248   -0.088655
O      -0.017515   -0.026100    0.150526
C      -1.322313   -0.578810    0.069395
C      -1.813836   -0.729950   -1.378517
C      -3.169694   -1.450272   -1.431711
C      -3.109385   -2.808032   -0.717617
C      -2.619259   -2.653205    0.726872
O      -2.441532   -3.907574    1.373306
C      -1.270843   -1.936417    0.771547
H       1.085081    1.666122    0.107220
H      -0.194628    1.628047   -1.125770
H      -0.614615    1.923035    0.581303
H      -2.024614    0.080576    0.612111
H      -1.892449    0.249494   -1.861990
H      -1.060417   -1.303148   -1.934009
H      -3.935498   -0.821613   -0.956512
H      -3.485209   -1.583254   -2.471826
H      -4.096411   -3.288998   -0.727821
H      -2.419687   -3.481745   -1.242190
H      -3.358093   -2.046991    1.281492
H      -3.280940   -4.377771    1.342901
H      -0.519613   -2.564352    0.277305
H      -0.950295   -1.806079    1.809123
