21

C      -0.029915    1.532284   -0.295866
C       0.026479    0.053185    0.091223
O       0.741484   -0.133645    1.315488
C      -1.356589   -0.566785    0.149419
C      -1.929252   -1.319581   -1.031816
C      -1.566099   -2.059678    0.228750
C      -0.395231   -3.035248    0.268298
C      -0.794080   -4.396381   -0.077512
C      -1.142280   -5.512872   -0.355284
H       0.976792    1.957650   -0.320126
H      -0.493594    1.663993   -1.278620
H      -0.624059    2.099517    0.431572
H       0.631514   -0.477959   -0.652009
H       0.234201    0.290436    2.016566
H      -2.067934    0.029707    0.719913
H      -2.975300   -1.187040   -1.284296
H      -1.281267   -1.455861   -1.893072
H      -2.401509   -2.378803    0.845249
H       0.394612   -2.707132   -0.416863
H       0.057476   -3.022129    1.267132
H      -1.439371   -6.501215   -0.603804
