19

C       0.369042    1.475573    0.153938
O       0.387106    0.067341    0.182756
C       0.254128   -0.490674   -1.110234
C       0.276499   -1.945080   -1.036274
C       0.291947   -3.148606   -0.994703
C       0.309313   -4.594025   -0.955932
C      -0.721691   -5.384086   -1.812130
O       0.319104   -6.193127   -2.389216
C       1.348346   -5.362509   -1.821618
H       1.196312    1.884402   -0.448272
H      -0.576885    1.865624   -0.255028
H       0.477682    1.820876    1.184325
H      -0.688738   -0.155603   -1.578095
H       1.069337   -0.137418   -1.766531
H       0.317751   -4.944202    0.080096
H      -1.457136   -5.981625   -1.263160
H      -1.233782   -4.768341   -2.561919
H       1.841109   -4.736832   -2.576179
H       2.100700   -5.945139   -1.279601
