13

N       0.005674    1.380153    0.144091
C      -0.049724    0.005386    0.049191
C      -1.184129   -0.737005    0.027251
O      -1.185442   -2.095992   -0.012607
C      -0.015225   -2.746519   -0.026260
C       1.172510   -2.103441   -0.012683
F       2.299785   -2.808410   -0.040145
C       1.269441   -0.656810    0.012259
O       2.314623   -0.015700   -0.006708
H       0.933288    1.722592   -0.077778
H      -0.747463    1.908288   -0.267261
H      -2.190844   -0.342597    0.043299
H      -0.121280   -3.822597   -0.052803
