15

C       0.073827    1.405113   -0.007521
N       0.035052   -0.047597    0.002628
C      -1.082860   -0.636559   -0.023008
N      -2.383537   -0.108915   -0.038952
C      -3.395886   -1.053150    0.114671
O      -4.570145   -0.817021    0.236339
C      -2.694980   -2.400318    0.105217
O      -1.995521   -2.607387   -1.129417
C      -1.253481   -2.127208    0.000419
H       1.032165    1.740172    0.396394
H       0.001163    1.785649   -1.035041
H      -0.725443    1.874175    0.586326
H      -2.602982    0.865777   -0.171814
H      -3.149247   -3.264610    0.575175
H      -0.462509   -2.762203    0.380109
