15

N       0.069444    1.439273   -0.025834
C       0.014801    0.032956   -0.003354
C      -1.062713   -0.791089   -0.035715
O      -2.385492   -0.524713    0.042183
O      -0.676338   -2.106592   -0.078681
C       0.695240   -2.097400   -0.069037
O       1.334551   -3.282732   -0.183191
C       1.174283   -0.828902   -0.018244
N       2.503241   -0.375141    0.078340
H       0.670263    1.793141    0.712237
H      -0.853841    1.840333    0.091564
H      -2.821890   -0.801639   -0.773650
H       1.162565   -3.821945    0.599355
H       3.157551   -1.138128   -0.051377
H       2.697448    0.337194   -0.618678
