21

C       0.002059    1.661007    0.240338
C       0.032879    0.130434    0.119975
C       0.854185   -0.426907   -1.088257
C       1.887542   -1.288991   -0.332044
C       1.000986   -2.016975    0.719329
C       0.829905   -0.570077    1.272822
C       2.307629   -0.349305    0.832766
C      -1.404674   -0.358566    0.151236
O      -1.911871   -1.137692   -0.615539
H       1.008415    2.073024    0.345596
H      -0.451605    2.115068   -0.647242
H      -0.580628    1.979206    1.112870
H       0.219782   -1.013468   -1.756604
H       1.323380    0.375626   -1.665216
H       2.622213   -1.824190   -0.934043
H       0.115715   -2.551779    0.368545
H       1.582982   -2.647123    1.395354
H       0.491944   -0.370637    2.291291
H       3.010090   -0.820429    1.524518
H       2.646305    0.661999    0.593163
H      -1.998868    0.068755    0.994366
