21

C      -0.041663    1.562502    0.021156
C       0.057640    0.051005   -0.040561
C       0.770365   -0.605096   -1.244338
C      -0.503022   -1.472628   -1.328761
C      -0.392601   -2.862312   -0.695388
C      -0.201536   -2.792543    0.827561
O       0.849932   -1.922928    1.227953
C       0.496528   -0.554311    1.299118
O      -1.209759   -0.553637   -0.452582
H       0.943397    2.010752    0.188810
H      -0.448127    1.950732   -0.916244
H      -0.704085    1.877250    0.835043
H       0.877237    0.076610   -2.090384
H       1.712759   -1.115093   -1.044681
H      -0.981768   -1.525413   -2.312095
H      -1.302348   -3.442308   -0.895066
H       0.440982   -3.400139   -1.163841
H      -1.143327   -2.478851    1.297250
H       0.059659   -3.783195    1.213466
H       1.390378   -0.038807    1.667546
H      -0.317292   -0.400916    2.026949
