18

O       0.036598   -0.081870   -0.001016
C      -0.027185    1.120464    0.057045
C      -1.351951    1.882045    0.149509
N      -1.242044    3.071592    1.011877
C       0.000760    3.836768    0.862883
C       0.388380    4.152393   -0.594495
O       1.019358    2.958928   -1.083635
C       1.193895    2.042977    0.009067
C       1.169949    2.922672    1.263642
H      -1.632658    2.120274   -0.892388
H      -2.110909    1.202453    0.545029
H      -2.041425    3.675193    0.855638
H      -0.076279    4.736833    1.477258
H      -0.481768    4.382813   -1.220499
H       1.092267    4.993548   -0.658509
H       2.103082    1.462820   -0.156821
H       2.107031    3.477301    1.363954
H       0.968296    2.373462    2.185128
