15

O      -0.052381    0.114940   -0.478604
C      -0.030222    1.253651   -0.093688
C      -1.229865    2.060374    0.409702
C      -0.832703    3.517071    0.185090
O      -1.566469    4.445786   -0.016926
C       0.703193    3.581653    0.208217
O       1.180782    3.532182    1.576877
C       1.841586    2.268628    1.347897
C       1.212555    2.145614   -0.063125
H      -2.171318    1.780045   -0.063840
H      -1.332854    1.893025    1.490897
H       1.104100    4.431325   -0.350540
H       2.931510    2.380576    1.336424
H       1.563886    1.507839    2.085390
H       1.886641    1.935761   -0.891722
