14

O       0.021031    1.425761    0.009686
C      -0.021428    0.024337    0.001994
C      -1.449061   -0.442041    0.012347
N      -2.491090    0.293798    0.022215
C      -3.634786   -0.620154    0.029487
C      -3.066808   -2.045489    0.020945
O      -3.621173   -3.115574    0.024025
N      -1.692855   -1.820189    0.011271
H       0.944265    1.694259   -0.002658
H       0.467319   -0.407660   -0.889631
H       0.483618   -0.417824    0.879489
H      -4.259637   -0.461519    0.915344
H      -4.274289   -0.457077   -0.845030
H      -1.008195   -2.559124    0.005138
