19

C       0.110762    1.523534   -0.011894
C      -0.007837    0.018806    0.022423
C      -1.378754   -0.606440   -0.222167
C      -1.356399   -1.955841    0.532036
C      -0.177366   -1.821043    1.530225
N       0.690505   -0.708721    1.090738
C       1.206284   -0.813069   -0.296604
C       1.141914   -2.024975   -1.069857
N       1.131363   -2.996846   -1.698807
H       1.117833    1.845760    0.263871
H      -0.115641    1.908402   -1.011853
H      -0.595435    1.976644    0.692258
H      -2.136483    0.068250    0.190669
H      -1.599216   -0.725411   -1.286822
H      -2.298949   -2.147519    1.050311
H      -1.192346   -2.784403   -0.157384
H      -0.531832   -1.550269    2.529573
H       0.407418   -2.740209    1.624021
H       2.150313   -0.290516   -0.432630
