19

C       0.318596    1.429569    0.272947
C      -0.211873    0.043905   -0.122634
C       0.425142   -0.481027   -1.370348
O       1.799205   -0.925536   -1.321531
C       0.801322   -1.851347   -1.798960
C       0.660466   -3.181013   -1.135451
C       0.510508   -1.469504   -3.252215
O      -0.855689   -1.026391   -3.317997
C       0.139948   -0.110962   -2.829085
H       1.398603    1.394335    0.442226
H       0.123806    2.168711   -0.511167
H      -0.161025    1.782051    1.190497
H      -0.032246   -0.667038    0.691317
H      -1.296023    0.083338   -0.282599
H       0.691609   -3.076543   -0.047849
H      -0.289006   -3.644761   -1.419971
H       1.472229   -3.853750   -1.433328
H       0.979892   -1.801154   -4.170234
H       0.262439    0.828848   -3.352912
