20

C      -0.173310    1.586467    0.013019
C       0.099637    0.092672    0.001487
O       1.227842   -0.344951   -0.011857
C      -1.147163   -0.789917    0.008402
C      -0.928331   -2.326950   -0.001620
C      -0.197774   -2.790465   -1.283783
C      -0.173645   -2.803603    1.261621
C      -2.271891   -2.935575    0.007915
N      -3.328458   -3.404916    0.015767
H       0.770947    2.131475    0.006709
H      -0.771522    1.873583   -0.858898
H      -0.753732    1.863195    0.900188
H      -1.744459   -0.508540    0.885553
H      -1.760356   -0.499504   -0.854735
H       0.805711   -2.364935   -1.304104
H      -0.123310   -3.880800   -1.303874
H      -0.739285   -2.472754   -2.179641
H      -0.698017   -2.495182    2.170823
H      -0.098963   -3.894082    1.269054
H       0.830119   -2.378277    1.267311
