21

C      -0.109988    1.580731    0.123021
C      -0.051497    0.051050   -0.007302
C      -1.502811   -0.416053   -0.188221
C       1.090893   -0.587543   -0.885966
C       2.120507   -0.132804    0.197150
C       0.924688   -0.731838    0.978269
O       0.865328   -0.808953    2.356816
C       1.025283   -1.906487   -0.035521
O      -0.025234   -2.840975   -0.089431
H       0.848354    2.078215    0.268039
H      -0.572143    2.013933   -0.771302
H      -0.746182    1.850308    0.973570
H      -1.955311    0.111078   -1.036782
H      -1.604497   -1.483935   -0.349935
H      -2.091428   -0.142572    0.696628
H       1.213329   -0.508212   -1.964912
H       3.052906   -0.700170    0.246465
H       2.312339    0.930082    0.294813
H       0.119369   -1.373372    2.589548
H       1.984786   -2.437526    0.006795
H       0.187975   -3.488934   -0.767487
