17

C      -0.018348    1.430570   -0.068368
O       1.437550    1.460016   -0.138948
C       1.491628    0.044864    0.053635
C      -0.029207   -0.089334    0.020241
C       0.833889   -0.658877   -1.085165
C       0.866859   -0.235207   -2.550049
O       1.348848   -1.403184   -3.206803
C       0.876118   -2.469946   -2.429829
O       0.963847   -2.064047   -1.074905
H      -0.365130    1.925701    0.845537
H      -0.487207    1.902263   -0.940479
H       2.261844   -0.375197    0.690283
H      -0.693377   -0.710052    0.605787
H      -0.136129    0.035042   -2.914901
H       1.554818    0.589824   -2.740304
H      -0.173135   -2.709766   -2.681638
H       1.514773   -3.343058   -2.587474
