17

O      -0.137967    1.420390   -0.106136
C      -0.093606    0.038126    0.072058
C      -0.465943   -0.690074    1.328929
C      -1.678353   -0.083765    1.989335
C      -2.862569   -0.984785    1.945555
C      -2.494843   -0.276586    0.657429
C      -3.387554    0.739915    0.065854
O      -4.289079    1.287603    0.659406
C      -1.279226   -0.887260    0.004632
H      -0.785924    1.790434    0.501926
H       0.792395   -0.352280   -0.420984
H       0.200121   -1.398038    1.810398
H      -1.689816    0.818121    2.593116
H      -2.726722   -2.061152    1.994634
H      -3.762115   -0.601175    2.415606
H      -3.158863    0.990390   -0.993448
H      -1.295842   -1.763818   -0.634158
