20

C      -0.197267    1.423182    0.053955
C      -0.424186   -0.032570   -0.328176
O      -0.024689   -0.506035   -1.374928
N      -1.109165   -0.772634    0.601299
C      -1.243190   -2.196482    0.495823
C      -2.506719   -2.832538    1.013601
C      -2.227794   -2.811652   -0.468915
C      -3.064697   -1.968448   -1.391549
O      -4.266459   -2.682007   -1.665829
H      -0.243295    2.033043   -0.849421
H      -0.921432    1.795471    0.783989
H       0.806513    1.531574    0.478278
H      -1.312709   -0.350406    1.493230
H      -0.313773   -2.745217    0.630378
H      -2.429984   -3.766965    1.557135
H      -3.283328   -2.164550    1.372969
H      -1.903976   -3.749194   -0.910256
H      -3.278552   -0.998839   -0.917722
H      -2.497401   -1.767392   -2.310800
H      -4.730454   -2.215908   -2.367478
