18

C      -0.155481    1.514221   -0.058307
C       0.069798   -0.008042   -0.024019
C       0.777405   -0.482736    1.209092
C       2.078712   -0.853263    1.335395
O       2.362930   -1.232884    2.617860
C       1.202554   -1.095911    3.318274
O       1.224185   -1.363968    4.642111
C       0.195095   -0.649573    2.522118
N      -1.165088   -0.489499    2.858519
H       0.798085    2.049792   -0.023635
H      -0.683829    1.811364   -0.969825
H      -0.752034    1.853263    0.795705
H      -0.899520   -0.516793   -0.096746
H       0.645339   -0.305670   -0.907675
H       2.896965   -0.914401    0.637223
H       1.527971   -2.269347    4.784127
H      -1.308337   -0.659839    3.847686
H      -1.503651    0.443658    2.649885
