15

O      -0.087209    0.115354    0.442377
C      -0.023437    1.236253    0.045914
O       1.014267    2.056532    0.345068
C       0.926893    3.414758   -0.101326
O       0.359324    4.237109    0.854176
C       1.384593    4.621957    1.799943
C       2.660151    4.778639    0.967284
C       2.386487    3.904226   -0.256124
O       3.114724    3.653995   -1.172777
H      -0.775698    1.721350   -0.604480
H       0.344637    3.474362   -1.025638
H       1.044682    5.543247    2.273470
H       1.489991    3.844673    2.564799
H       2.805223    5.809827    0.628811
H       3.575002    4.459155    1.470518
