17

O       0.050202   -0.044376    0.080937
C       0.026667    1.164847   -0.012177
C      -1.245260    2.043493    0.098972
N      -0.757048    3.418488    0.332164
C       0.545267    3.515591   -0.339358
C       1.646849    4.391509    0.307908
N       2.837928    3.503964    0.236667
C       2.404858    2.200350    0.161394
C       1.102990    2.121973   -0.184918
H      -1.814899    1.929149   -0.839953
H      -1.881994    1.691173    0.916001
H      -1.416473    4.103555   -0.019531
H       0.447261    3.786982   -1.406923
H       1.833196    5.326367   -0.224953
H       1.388308    4.612730    1.352204
H       3.629086    3.712278    0.827318
H       3.086282    1.390091    0.389030
