18

C      -0.003289    1.511954   -0.066694
C       0.017628    0.058276   -0.000717
C       0.028515   -1.144150    0.074202
C       0.055338   -2.598928    0.100907
O       1.021710   -3.124347   -0.801544
C       0.250107   -3.331862    1.481508
C      -1.085551   -4.044060    1.253675
N      -2.105912   -2.970532    1.158991
C      -1.304919   -3.333878   -0.030466
H       1.000736    1.917939   -0.232574
H      -0.644504    1.866562   -0.881309
H      -0.385064    1.941732    0.865944
H       0.956915   -2.614390   -1.616487
H       1.119405   -3.987048    1.411152
H       0.306542   -2.698013    2.367496
H      -1.359995   -5.048984    1.547691
H      -3.014962   -3.420520    1.051001
H      -1.763980   -3.657210   -0.957176
