12

C      -0.020226    1.378425   -0.008603
O       0.005007   -0.032509    0.000349
C       0.666194   -0.556412    1.113848
C       0.631317   -2.073296    1.017619
F       1.243606   -2.516039   -0.084249
F       1.263062   -2.598559    2.080973
F      -0.619565   -2.542598    1.009554
H       0.995494    1.801872   -0.031718
H      -0.553937    1.683789   -0.910556
H      -0.544304    1.780075    0.872049
H       1.721907   -0.245830    1.158131
H       0.183995   -0.267756    2.061010
