15

C      -0.337778    1.129994   -0.140261
C       1.132566    1.059003    0.229611
C       0.356965   -0.190594   -0.010553
O       0.102393   -0.973082    1.145956
C      -0.911234   -1.833663    1.055971
N      -1.669143   -2.020642    0.007295
O      -2.553482   -3.007725    0.385042
N      -2.331464   -3.416848    1.667554
C      -1.327682   -2.711581    2.100435
H      -1.031952    1.400354    0.646773
H      -0.620946    1.459775   -1.132980
H       1.878192    1.345415   -0.502772
H       1.393730    1.279557    1.258224
H       0.536138   -0.792781   -0.895075
H      -0.931826   -2.828781    3.096294
