20

C       0.041061    1.557163    0.011211
C      -0.006421    0.028450    0.014256
C       0.683089   -0.628033   -1.206560
C       1.226896   -1.966087   -0.696846
O       1.372613   -2.978295   -1.334980
C       1.445641   -1.811255    0.778724
N       2.146560   -0.525558    1.098825
C       0.686953   -0.606105    1.232403
C       0.038991   -0.515015    2.589458
H       1.078877    1.902428    0.051686
H      -0.418889    1.961548   -0.895902
H      -0.493647    1.979974    0.868281
H      -1.054425   -0.299401    0.036528
H       0.023982   -0.779226   -2.063241
H       1.533925   -0.021895   -1.538368
H       1.614310   -2.683919    1.399115
H       2.575714   -0.634768    2.016270
H      -0.017371    0.524666    2.930718
H      -0.981063   -0.912840    2.565048
H       0.604152   -1.082525    3.336172
