13

N      -0.045421    1.279121    0.290145
C      -0.000318    0.007637   -0.189415
O       0.678579   -0.402271   -1.089875
O      -0.925468   -0.755829    0.506878
C      -0.932095   -2.090905    0.238652
C      -1.809926   -2.782948   -0.524133
O      -1.467681   -4.103331   -0.425513
C      -0.395024   -4.114968    0.395846
N      -0.030597   -2.952090    0.827523
H       0.684238    1.899862   -0.013999
H      -0.486625    1.454419    1.176540
H      -2.650546   -2.530164   -1.144031
H       0.042735   -5.076611    0.610838
