22

C       0.029797    1.561202   -0.064373
C       0.018666    0.025675   -0.041328
C       0.556081   -0.569843   -1.348211
C       0.793434   -0.478816    1.182475
N       0.927369   -1.948449    1.359703
C       0.054598   -2.597352    2.314764
C       2.367603   -1.867284    1.687182
C       2.330882   -0.409567    1.208767
O       3.149573    0.418712    0.940015
H       1.054896    1.937951   -0.137632
H      -0.534723    1.939807   -0.922023
H      -0.417719    1.980412    0.843518
H      -1.020287   -0.312043    0.085821
H       1.571492   -0.212645   -1.553273
H       0.582216   -1.661092   -1.293511
H      -0.075348   -0.278744   -2.193359
H       0.403438    0.015705    2.092748
H      -0.986526   -2.502757    1.990507
H       0.289519   -3.664988    2.370726
H       0.136658   -2.174296    3.334670
H       2.594818   -1.926425    2.765368
H       3.017219   -2.565357    1.148557
