19

C      -0.020286    1.567145    0.026091
C       0.049212    0.039772    0.026220
C       0.809631   -0.585248   -1.143068
C       2.301783   -0.856329   -0.987616
C       1.264122   -1.973034   -0.813682
C       1.468981   -1.877690    0.718255
C       2.665809   -0.933027    0.513128
O       2.106263    0.104288    1.339849
C       0.804868   -0.545744    1.226349
H       0.984004    1.990695    0.094820
H      -0.495908    1.937530   -0.887785
H      -0.603252    1.936310    0.876808
H      -0.970115   -0.373353    0.023457
H       0.486639   -0.372555   -2.157341
H       2.989248   -0.680458   -1.806195
H       1.086426   -2.861657   -1.403789
H       1.495396   -2.753833    1.360068
H       3.702894   -1.174082    0.753561
H       0.265573   -0.524315    2.176349
