17

C      -0.080051    1.542358   -0.008380
C      -0.009340    0.089240   -0.020003
C       0.047370   -1.111321   -0.039476
C       0.126825   -2.568306   -0.061735
C      -1.174956   -3.205005    0.164061
C      -2.237659   -3.742489    0.322703
C       0.743803   -3.116073   -1.399694
C       1.080779   -4.592573   -1.389512
O       0.946493   -2.395381   -2.337680
H       0.548858    1.965996    0.782190
H       0.257837    1.959114   -0.963276
H      -1.105930    1.886790    0.161471
H       0.807183   -2.907591    0.735792
H      -3.183000   -4.202760    0.472549
H       0.236217   -5.182673   -1.024486
H       1.364148   -4.910369   -2.393112
H       1.920210   -4.768507   -0.705867
