19

C      -0.143844    1.595211    0.007444
C       0.017109    0.081974   -0.015670
C      -1.330798   -0.611796   -0.180759
C       1.105653   -0.523140   -0.957427
O       1.831058    0.437101   -1.696746
C       1.755751   -1.108685    0.294785
C       2.075758   -0.040312    1.259552
N       0.688091   -0.527815    1.210438
H       0.810376    2.123072    0.011105
H      -0.694756    1.929550   -0.877117
H      -0.712658    1.889576    0.896058
H      -1.786854   -0.345839   -1.140310
H      -1.217024   -1.699189   -0.137695
H      -2.012110   -0.316067    0.622971
H       0.689821   -1.295489   -1.617640
H       2.558898   -0.008640   -2.142596
H       2.102604   -2.131196    0.408940
H       2.584291   -0.333044    2.173147
H       2.326642    0.951363    0.897375
