24

C      -0.123093    1.566342   -0.066754
C      -0.050357    0.038677   -0.008665
C       0.735220   -0.482940    1.200184
C       0.870890   -2.011083    1.217934
O       1.573650   -2.482792    0.065911
C       1.469293   -2.577750    2.526886
C       1.349012   -4.107513    2.546920
C       2.925451   -2.145087    2.758023
H       0.877291    2.009394   -0.131738
H      -0.692815    1.905575   -0.937628
H      -0.606311    1.977193    0.827076
H      -1.066421   -0.376820    0.019321
H       0.410488   -0.352077   -0.922386
H       1.736617   -0.027945    1.205913
H       0.248992   -0.155936    2.129198
H      -0.133524   -2.441539    1.106719
H       2.434501   -2.050776    0.053025
H       0.861276   -2.172399    3.347897
H       1.881029   -4.541164    1.694896
H       1.769969   -4.526636    3.466489
H       0.302588   -4.424380    2.481295
H       3.581135   -2.521687    1.963722
H       3.036003   -1.057462    2.805254
H       3.302125   -2.554103    3.700627
