16

C       0.371351    1.177122   -0.284229
O      -0.288399    0.387743    0.715371
C      -1.290904   -0.387136    0.265429
C      -1.317212   -1.678173   -0.089184
O      -2.615929   -2.032889   -0.412161
C      -3.427413   -0.931484   -0.250105
O      -4.615464   -0.921730   -0.438055
N      -2.603872    0.097143    0.160958
C      -3.090215    1.411080    0.520919
H       1.173730    1.709605    0.228158
H       0.789338    0.534608   -1.066493
H      -0.314918    1.901152   -0.738323
H      -0.561210   -2.439245   -0.146878
H      -4.176429    1.342853    0.598163
H      -2.668086    1.721956    1.479756
H      -2.838310    2.159959   -0.238324
