19

C      -0.149454    1.461504    0.162661
C      -0.026838   -0.012091   -0.043665
C       0.116413   -0.758285   -1.192227
C       0.180972   -2.130388   -0.818343
C       0.069431   -2.196829    0.553249
N      -0.051287   -0.899857    1.007750
C       0.102712   -3.348975    1.480572
C      -1.151229   -3.833940    2.130049
N      -0.502225   -4.629640    1.077091
H       0.658632    1.861756    0.788045
H      -0.105279    1.974893   -0.800500
H      -1.098063    1.737681    0.640629
H       0.170730   -0.357327   -2.193264
H       0.316891   -2.975424   -1.476540
H      -0.173474   -0.646489    1.973527
H       1.029820   -3.486328    2.037390
H      -1.112212   -4.271193    3.123903
H      -2.074053   -3.312096    1.892160
H      -1.002775   -4.487595    0.202526
