15

O      -0.003491    1.498744    0.330813
C       0.020698    0.127973    0.021755
C       0.711378   -0.688769    1.116963
O      -0.275369   -0.750568    2.140307
C      -1.495759   -1.100627    1.500938
C      -1.401762   -0.533024    0.041432
C      -2.479401    0.384640   -0.298292
N      -3.358134    1.090719   -0.552818
H      -0.281819    1.587446    1.251089
H       0.489453    0.037165   -0.960001
H       0.986259   -1.695302    0.761601
H       1.595652   -0.189341    1.516614
H      -1.616248   -2.191805    1.467613
H      -2.319252   -0.672417    2.074896
H      -1.420439   -1.358610   -0.676506
