19

C      -1.273001    1.164859   -0.124462
O      -1.013833   -0.219221   -0.110799
C       0.154249   -0.554261    0.606611
C       0.312753   -2.066011    0.602200
N      -0.724729   -2.685456    1.426139
C      -1.984800   -2.995906    0.783512
C      -1.053144   -4.099668    1.192552
C      -0.377408   -4.862348    0.170781
N       0.183400   -5.487209   -0.625394
H      -2.186376    1.321376   -0.703127
H      -1.421777    1.562207    0.891712
H      -0.452393    1.727974   -0.596247
H       1.041334   -0.093619    0.140189
H       0.091565   -0.188728    1.644199
H       0.301424   -2.424775   -0.438297
H       1.285506   -2.323975    1.034040
H      -2.880254   -2.821535    1.372630
H      -2.079100   -2.797105   -0.280525
H      -1.258510   -4.668570    2.094957
