21

C      -0.093154    1.634870   -0.063471
C       1.447682    1.558389   -0.027058
C       2.144537    2.066509    1.236474
C       2.027315    1.187296    2.495775
C       0.644080    0.678521    2.940797
O       0.309023   -0.576131    2.366859
C      -0.532935   -0.624350    1.242623
C      -0.033788    0.094662   -0.020376
O       1.406612    0.110383   -0.135966
H      -0.580612    2.135977    0.774243
H      -0.496913    2.036013   -0.994523
H       1.930967    1.991812   -0.911090
H       3.213726    2.196086    1.029622
H       1.754347    3.074430    1.436223
H       2.647619    0.294469    2.370823
H       2.460940    1.755891    3.327885
H       0.684896    0.493509    4.020897
H      -0.149934    1.421407    2.778536
H      -0.635567   -1.693705    1.029365
H      -1.542924   -0.237238    1.471555
H      -0.499208   -0.391577   -0.888414
