18

O      -0.013338    1.288936   -0.409817
C      -0.053889   -0.044259    0.086119
C      -1.481303   -0.502082    0.089947
C      -2.554596    0.193220    0.906535
C      -3.733758   -0.651366    0.487380
C      -3.316067   -2.049509    0.207676
C      -1.803399   -1.988538   -0.054823
C      -2.115241   -1.031621   -1.172804
N      -3.606895   -1.118649   -0.931974
H       0.885765    1.616584   -0.312316
H       0.549382   -0.721689   -0.540032
H       0.355730   -0.095646    1.107799
H      -2.372854    0.135542    1.985978
H      -2.660999    1.243723    0.621431
H      -4.747597   -0.421053    0.794956
H      -3.908303   -2.940146    0.381825
H      -1.081180   -2.789739    0.018339
H      -1.727185   -0.914594   -2.175548
