15

O      -0.002197   -0.026703    0.258819
C      -0.011606    1.151273    0.023077
O      -1.188872    1.800392   -0.172217
C      -1.125991    3.180688   -0.444384
C      -0.162532    4.122254    0.209071
C      -0.078315    3.820556   -1.301556
C       1.298225    3.159733   -1.071129
C       1.216333    3.453124    0.397868
C       1.194914    2.005458   -0.080274
H      -2.134589    3.556261   -0.575625
H      -0.476648    5.020230    0.724279
H      -0.316306    4.445835   -2.151765
H       2.136856    3.236666   -1.748593
H       1.979189    3.801527    1.079662
H       2.115745    1.457477    0.080499
