18

O       0.488728   -0.153501    1.087715
C      -0.236548   -0.330565   -0.099023
C      -1.400618    0.679252   -0.150289
C      -2.392117    0.489310   -1.261816
C      -2.253796   -0.266597   -2.349679
C      -1.043709   -1.078551   -2.735429
O       0.223254   -0.424241   -2.538688
C       0.685954   -0.168955   -1.297934
N       1.865800    0.246084   -1.090065
H       1.373083    0.135874    0.800634
H      -0.660297   -1.347107   -0.111432
H      -1.920963    0.604028    0.812033
H      -0.981684    1.694783   -0.176987
H      -3.323560    1.039547   -1.144705
H      -3.076818   -0.320204   -3.057665
H      -1.029750   -2.054386   -2.231560
H      -1.063648   -1.276529   -3.809367
H       2.398601    0.334895   -1.954247
