22

C      -0.076717    1.560223   -0.060340
C      -0.036832    0.030671    0.017703
C       0.732481   -0.528558    1.223906
C       0.611623   -2.051458    1.321069
C       1.550688   -2.606084    2.393756
C       3.003309   -2.282176    2.031419
C       3.235097   -0.832075    1.621138
O       4.338792   -0.318438    1.654055
N       2.142432   -0.144937    1.160038
H       0.917015    1.994076   -0.216215
H      -0.699587    1.888921   -0.897372
H      -0.493198    1.995103    0.855039
H      -1.063429   -0.351519    0.075325
H       0.403522   -0.380329   -0.899037
H       0.283511   -0.096806    2.135793
H      -0.430599   -2.306625    1.538281
H       0.858333   -2.497610    0.348379
H       1.298997   -2.160040    3.364751
H       1.419439   -3.687486    2.503283
H       3.696227   -2.496040    2.848595
H       3.325294   -2.900892    1.183436
H       2.353291    0.820690    0.950355
