20

C      -0.100776    1.523194   -0.037636
C       0.041221   -0.004387    0.016897
C       0.722121   -0.537808   -1.246180
O      -0.080339   -0.175156   -2.361475
C       0.803081   -0.429312    1.272208
C       0.078464   -0.158848    2.621218
N      -0.021977   -1.471565    3.282922
C       0.483845   -2.301093    2.472210
O       0.985491   -1.878253    1.288104
H       0.883846    2.006634   -0.029435
H      -0.610105    1.814456   -0.957597
H      -0.672220    1.911241    0.810686
H      -0.959695   -0.454966    0.061234
H       1.734197   -0.104374   -1.326552
H       0.831416   -1.627190   -1.170452
H       0.322118   -0.543582   -3.152770
H       1.809614    0.006702    1.258459
H       0.625015    0.541074    3.259895
H      -0.927273    0.251277    2.473788
H       0.561602   -3.370897    2.633428
