21

C       0.146238    1.645693    0.009401
C      -0.009707    0.118513   -0.000282
C       0.596315   -0.485428   -1.286984
C       0.150717   -1.925615   -1.618991
C       0.485670   -2.993231   -0.584419
O       1.218445   -3.919981   -0.840389
C      -0.164114   -2.849169    0.793795
C       0.531749   -1.770935    1.599807
C       0.597977   -0.487555    1.249513
H       1.204641    1.929111   -0.025617
H      -0.350882    2.101540   -0.852181
H      -0.284542    2.079641    0.917334
H      -1.087828   -0.109179   -0.007682
H       0.312173    0.144281   -2.139125
H       1.690083   -0.445401   -1.220756
H      -0.940860   -1.928294   -1.752267
H       0.601708   -2.243466   -2.562734
H      -1.226893   -2.601203    0.668130
H      -0.093088   -3.814716    1.296947
H       1.027708   -2.098558    2.508702
H       1.139827    0.197789    1.898424
