19

C      -0.221071    1.462129    0.182434
C       0.154499    0.026623    0.013575
C       0.482486   -0.733502   -1.284655
C       1.366041   -1.715412   -0.439967
C       0.987230   -0.902806    0.810081
C       1.746441   -0.748809    2.095531
C       1.651407   -1.994900    2.961889
O       2.596312   -2.556297    3.451583
O      -0.451577   -0.939901    0.892513
H       0.471203    2.111603   -0.362753
H      -1.229661    1.644224   -0.205748
H      -0.211884    1.745174    1.238591
H      -0.383053   -1.164108   -1.793454
H       1.069063   -0.145145   -1.994574
H       1.060184   -2.764075   -0.421133
H       2.427236   -1.649829   -0.692190
H       2.802337   -0.527417    1.915090
H       1.304152    0.079022    2.666259
H       0.612494   -2.358777    3.119845
