20

C      -0.078975    1.503346    0.047694
C      -0.008981   -0.012193    0.028708
C      -1.261047   -0.687692   -0.496732
C       1.331225   -0.651701   -0.270673
C       0.774362   -0.702738    1.131571
C       1.410572    0.028599    2.323589
O       1.268765   -0.917275    3.412030
C       0.632134   -1.986719    2.875093
N       0.315786   -1.978772    1.647650
H       0.854447    1.959914    0.392178
H      -0.277065    1.887710   -0.959415
H      -0.886857    1.857775    0.699088
H      -1.438907   -0.405545   -1.541091
H      -1.181169   -1.774061   -0.435470
H      -2.140783   -0.385583    0.083539
H       1.343718   -1.585297   -0.822674
H       2.184853   -0.003546   -0.450204
H       2.476041    0.242425    2.193409
H       0.894714    0.951143    2.607904
H       0.440895   -2.793390    3.573072
