25

C      -0.015872    1.528661   -0.017216
C      -0.050017   -0.005800    0.034184
C       0.745270   -0.537072    1.235711
C      -1.472252   -0.528157    0.037060
C      -2.575441   -0.269195   -1.036222
C      -3.248705   -1.190078    0.025231
C      -4.659749   -1.715348    0.016585
C      -1.930054   -2.020228    0.023020
C      -2.584177   -0.288574    1.110632
H       1.014830    1.895154   -0.063445
H      -0.548796    1.913004   -0.892380
H      -0.482462    1.960708    0.875487
H       0.428656   -0.384684   -0.881263
H       0.309538   -0.187847    2.178824
H       0.756761   -1.631164    1.257494
H       1.783310   -0.190545    1.201180
H      -2.962084    0.752021   -1.112010
H      -2.406218   -0.704835   -2.026609
H      -4.849211   -2.323737   -0.874871
H      -4.853582   -2.340332    0.895534
H      -5.386232   -0.895034    0.022383
H      -1.711196   -2.590499   -0.885922
H      -1.722997   -2.609870    0.921669
H      -2.427631   -0.743693    2.093693
H      -2.971289    0.731196    1.201557
