21

C      -0.130081    1.525323   -0.066971
C       0.048468    0.019350    0.021963
O       0.835416   -0.440368   -1.092038
C       1.546198   -1.590770   -0.661040
C       1.751727   -2.603615   -1.750089
C       2.606899   -1.398086    0.412461
C       2.316393   -0.119186    1.193666
C       0.806135   -0.532913    1.234473
C       1.212640   -1.951374    0.747488
H       0.828505    2.046582   -0.001907
H      -0.598513    1.794491   -1.017889
H      -0.776272    1.878781    0.743133
H      -0.943541   -0.463294   -0.022647
H       2.311205   -2.165615   -2.583068
H       2.314984   -3.463860   -1.376651
H       0.790941   -2.958040   -2.136502
H       3.552816   -1.927919    0.374903
H       2.760117   -0.148671    2.191926
H       2.568929    0.833389    0.717780
H       0.286158   -0.425842    2.185931
H       0.887610   -2.916261    1.114982
