21

C      -0.222710    1.456758   -0.215643
C       1.217892    1.305861    0.196176
C       0.358826    0.077496   -0.002064
C      -0.065019   -0.729749    1.190635
C      -1.180563   -1.810985    1.144997
C      -0.748623   -2.773114    0.018413
C       0.746605   -2.922185    0.447787
C       0.688524   -1.996975    1.681624
O      -0.557196   -2.425110    2.316021
H      -0.925575    1.827209    0.523407
H      -0.439488    1.771022   -1.230472
H       1.989402    1.516922   -0.535848
H       1.485497    1.574032    1.213000
H       0.558681   -0.487864   -0.906962
H      -0.248200   -0.082140    2.052891
H      -2.239540   -1.583680    1.269438
H      -1.298509   -3.714458    0.074788
H      -0.881856   -2.352777   -0.982014
H       1.001783   -3.943740    0.735929
H       1.460109   -2.586821   -0.309718
H       1.544387   -1.960458    2.355986
