18

C      -0.056502    1.621451   -0.010404
C       0.041968    0.105049   -0.102527
C      -1.112130   -0.595234    0.563914
O      -2.027647   -0.046033    1.122601
C       0.490578   -0.761084   -1.275975
C       1.823722   -0.342895   -1.922440
C       2.559584    0.779976   -1.302548
N       2.575477   -0.533856   -0.629628
C       1.246149   -0.850214    0.017501
H       0.055446    2.103363   -0.983441
H      -1.047511    1.865693    0.380695
H       0.679638    2.044052    0.679086
H      -1.066611   -1.706087    0.504474
H      -0.165978   -1.484133   -1.744167
H       2.171781   -0.828859   -2.828117
H       3.529240    0.997176   -1.743376
H       2.075537    1.632257   -0.855369
H       1.269514   -1.622186    0.776781
