22

C      -0.204527    1.581954    0.072549
C       0.014175    0.087378   -0.040799
C       0.611227   -0.589864   -1.238027
C       1.138081    0.149196   -2.450490
O       2.354386   -0.412868   -2.920551
C       3.508417    0.057784   -2.246667
C       3.640986   -0.361865   -0.777020
C       2.561765    0.212409    0.149123
N       1.325190   -0.561801    0.040775
H       0.487447    2.178953   -0.523516
H      -1.219630    1.829743   -0.255479
H      -0.109163    1.903857    1.115651
H      -0.751397   -0.478232    0.491550
H       0.243106   -1.584365   -1.491371
H       0.418911    0.047002   -3.270835
H       1.270150    1.223579   -2.261909
H       4.355939   -0.336775   -2.816768
H       3.550992    1.159844   -2.312060
H       3.630934   -1.454925   -0.701031
H       4.625129   -0.020630   -0.431124
H       2.892506    0.138057    1.191909
H       2.441102    1.287092   -0.059268
