21

C       0.032142    1.583394   -0.165362
C       0.030759    0.085559    0.096924
O       0.028304   -0.353052    1.225401
C       0.033170   -0.787345   -1.154642
C       0.048329   -2.329475   -0.968576
C       1.322921   -2.786136   -0.219257
C      -1.215692   -2.811104   -0.216879
C       0.052771   -2.919553   -2.313957
C       0.056240   -3.393926   -3.419116
H       0.921679    1.870470   -0.737217
H      -0.837335    1.869647   -0.767432
H       0.016513    2.121669    0.782872
H      -0.842214   -0.501576   -1.753191
H       0.896267   -0.485223   -1.762748
H       1.333287   -2.371052    0.789461
H       1.349863   -3.877326   -0.155638
H       2.223134   -2.459690   -0.749091
H      -2.122972   -2.502979   -0.745629
H      -1.220778   -3.902592   -0.152672
H      -1.232859   -2.395498    0.791496
H       0.059390   -3.822669   -4.390565
