22

C      -0.320833    1.411884    0.092722
C       0.070098   -0.055399   -0.045495
C      -1.107026   -1.038120    0.274220
C      -0.400269   -1.454597    1.595919
C       0.863799   -0.665842    1.163940
N       2.011402   -1.432118    0.650195
C       1.705295   -2.564395   -0.237767
C       2.063335   -1.248855   -0.818731
C       0.935281   -0.338530   -1.295299
H       0.564280    2.058160    0.101241
H      -0.962127    1.730412   -0.737600
H      -0.873798    1.590111    1.021785
H      -2.082472   -0.558426    0.392950
H      -1.220579   -1.848815   -0.451291
H      -0.872784   -1.030651    2.485217
H      -0.255557   -2.523550    1.766685
H       1.247698    0.048912    1.897877
H       2.437969   -3.366567   -0.203129
H       0.680744   -2.910016   -0.342845
H       3.050361   -1.101364   -1.249483
H       0.353752   -0.787735   -2.108101
H       1.358319    0.594009   -1.684414
