18

O      -0.405536   -0.183362    0.677959
C      -0.109403    0.991061    0.691222
C       1.309632    1.468460    0.991217
C       2.235566    1.033583   -0.124602
O       2.147601    1.785627   -1.342072
C       3.354612    1.865703   -0.577617
N      -1.031343    2.009771    0.480785
C      -0.965916    2.959555   -0.621072
C      -2.055384    1.929261   -0.533330
H       1.347229    2.553292    1.114510
H       1.628998    0.994729    1.925756
H       2.290062   -0.043900   -0.275200
H       3.538757    2.824521   -0.094658
H       4.226735    1.401900   -1.035666
H      -1.182024    3.993197   -0.364056
H      -0.178877    2.814934   -1.355889
H      -2.011818    1.075881   -1.204225
H      -3.053107    2.229751   -0.227160
