19

C      -0.034665    1.550865    0.106548
C       0.004366    0.018459    0.053060
C       0.646109   -0.485777   -1.246395
C       0.750395   -0.566509    1.247182
O       0.043731   -0.188761    2.449581
C       0.600283   -0.591586    3.602420
O       1.618845   -1.231068    3.693248
C      -0.188563   -0.154530    4.735450
C      -0.803098    0.182565    5.711166
H       0.977456    1.968769    0.044140
H      -0.612854    1.953941   -0.730636
H      -0.488575    1.902015    1.036376
H      -1.026544   -0.356741    0.100091
H       1.687468   -0.152656   -1.327119
H       0.638349   -1.579172   -1.304685
H       0.107805   -0.099509   -2.116914
H       0.800685   -1.659226    1.200540
H       1.777494   -0.189119    1.307487
H      -1.346795    0.480423    6.574480
