18

C      -0.030095    1.573680   -0.038542
C       0.008435    0.043777   -0.015309
C       0.700766   -0.509808    1.233955
C       0.791634   -2.048989    1.225397
O       1.499466   -2.554607    0.101070
C       1.364179   -2.549880    2.479849
C       1.873621   -2.941387    3.503735
C       2.443783   -3.387677    4.661256
N       2.930147   -3.764403    5.646691
H       0.980431    1.996720   -0.023872
H      -0.530809    1.941060   -0.939210
H      -0.567920    1.973102    0.828316
H      -1.014425   -0.352389   -0.063127
H       0.524100   -0.335117   -0.903737
H       1.717458   -0.102503    1.320040
H       0.166128   -0.197550    2.139283
H      -0.220744   -2.460655    1.123239
H       2.419034   -2.274012    0.178194
