13

O       0.060874   -0.032908   -0.393241
C       0.022201    1.162550   -0.181704
N      -1.195562    1.835758   -0.198048
C      -1.548562    3.130956    0.229902
O      -2.574412    3.310556    0.835725
N      -0.770170    4.206493   -0.215150
C       0.503697    4.252135   -0.209393
C       1.470195    3.227031    0.178915
C       1.259530    1.902878    0.163534
H      -1.982997    1.196026   -0.198084
H       0.946226    5.187294   -0.563318
H       2.472132    3.588153    0.396193
H       2.080718    1.224695    0.370930
