23

C      -0.285292    1.568657   -0.926718
C      -0.077555    0.254480   -0.161495
C      -1.379308   -0.472976    0.164651
C      -2.380395    0.288831    1.029664
C      -1.864188    0.639585    2.429858
C      -1.938157   -1.406493   -0.859127
C      -1.356872   -1.990068    0.426240
C      -0.124659   -2.804167    0.369080
O       0.127902   -3.704285    1.134182
H       0.678379    2.006345   -1.203775
H      -0.856100    1.403363   -1.846682
H      -0.822937    2.311453   -0.329973
H       0.563609   -0.397308   -0.762780
H       0.478569    0.451339    0.762793
H      -2.682993    1.204629    0.507220
H      -3.290158   -0.315984    1.121784
H      -1.550911   -0.259359    2.970800
H      -1.007343    1.319174    2.389812
H      -2.644907    1.131358    3.017862
H      -3.012510   -1.481287   -0.989071
H      -1.366147   -1.567620   -1.768583
H      -2.059166   -2.347676    1.172659
H       0.577464   -2.550319   -0.457553
