15

N      -0.079343    1.348760    0.093573
C       0.042521    0.003411   -0.177309
O       1.095877   -0.520529   -0.478242
C      -1.231098   -0.760852   -0.105584
C      -1.351247   -2.089464    0.021694
C      -2.807479   -2.438531    0.128554
C      -3.517848   -1.082480   -0.031013
O      -4.698159   -0.851253   -0.115529
N      -2.497273   -0.133625   -0.078566
H       0.794852    1.844334    0.190575
H      -0.832493    1.663314    0.685922
H      -0.520267   -2.774676    0.082430
H      -3.161599   -3.133674   -0.640883
H      -3.075724   -2.884149    1.094494
H      -2.675751    0.784460   -0.455647
