17

O      -0.039736    1.448119    0.230196
C      -0.009875    0.053953    0.106531
C      -0.629944   -0.804862    1.176032
C      -1.319167   -0.633909   -0.164284
C      -2.582691    0.173579   -0.245503
O      -3.665661   -0.644344    0.221781
C      -4.902548   -0.158410    0.022488
N      -5.909390   -0.781599    0.462898
H       0.567429    1.696111    0.934971
H       0.865689   -0.334459   -0.413026
H      -0.180211   -1.761959    1.414364
H      -1.078810   -0.288905    2.018437
H      -1.286303   -1.482311   -0.840657
H      -2.498048    1.075894    0.368733
H      -2.776764    0.483745   -1.281226
H      -4.920394    0.785217   -0.542134
H      -6.759960   -0.281833    0.212024
