15

N       0.042253   -1.124278   -0.029035
C       0.011709    0.032160   -0.003123
C      -0.054588    1.467785    0.028879
C      -1.036566    2.287111    0.903232
N      -0.857500    3.417864   -0.072669
C       0.611189    3.700148   -0.055578
C       0.912650    2.979040   -1.335337
C       1.251368    2.310455   -0.014043
C      -0.506225    2.397866   -1.167952
H      -2.061359    1.911143    0.850394
H      -0.755809    2.503404    1.936724
H       1.040310    4.590205    0.384062
H       1.515348    3.237644   -2.193487
H       2.211943    2.080919    0.423628
H      -1.248826    2.138229   -1.918307
