20

C      -0.283200    1.457214    0.170365
C       0.086635   -0.004571   -0.035546
C      -1.094052   -1.000867    0.215212
C      -0.444728   -1.449845    1.552792
C       0.860200   -0.704186    1.144225
C       1.891715   -1.533783    0.432162
C       1.910335   -1.315693   -0.883679
C       0.903937   -0.276099   -1.319762
H       0.610094    2.092087    0.191440
H      -0.930285    1.818544   -0.638008
H      -0.820575    1.606995    1.113669
H      -2.087336   -0.549098    0.287458
H      -1.134174   -1.800397   -0.529190
H      -0.923002   -1.002198    2.428386
H      -0.358111   -2.526551    1.720022
H       1.297049   -0.065204    1.920678
H       2.539040   -2.231218    0.954988
H       2.578909   -1.805345   -1.584544
H       0.265345   -0.627053   -2.141607
H       1.405822    0.629792   -1.690749
