20

C       0.007338    1.459562    0.055061
C      -0.057840   -0.028912   -0.110858
N      -0.999966   -0.724330    0.377242
C      -1.040808   -2.137942    0.118219
C      -1.838227   -2.900233    1.150838
C      -1.105385   -2.567732   -1.338542
C       0.160067   -2.768869   -0.544186
C       1.348254   -1.863010   -0.751399
O       0.988390   -0.478506   -0.865791
H       0.916585    1.744616    0.594696
H       0.049313    1.947184   -0.924477
H      -0.869730    1.805798    0.600424
H      -2.858540   -2.507943    1.206864
H      -1.887413   -3.965475    0.904762
H      -1.386762   -2.797865    2.143331
H      -1.696303   -3.443496   -1.585514
H      -1.123296   -1.782588   -2.087224
H       0.423810   -3.784578   -0.261733
H       2.043743   -1.969414    0.092967
H       1.895783   -2.094941   -1.670623
