17

C       0.202534    1.199531    0.603034
N       0.083283   -0.210326    0.284105
C      -1.063558   -0.639509   -0.092286
N      -2.234423    0.036563   -0.270539
C      -1.156962   -2.111361   -0.378966
O      -2.218018   -2.665626   -0.565807
C       0.172747   -2.885979   -0.459642
C       0.640500   -3.569526    0.798659
O       0.719977   -2.954559   -1.532156
H       1.231665    1.426475    0.888717
H      -0.062980    1.835280   -0.255392
H      -0.450245    1.491934    1.441880
H      -2.364976    0.944635    0.140419
H      -3.053106   -0.538468   -0.405614
H      -0.158067   -4.202811    1.200855
H       1.528305   -4.168664    0.589885
H       0.868316   -2.805534    1.549466
