22

C      -1.289225    0.608417    0.243769
C       0.093990    0.054257   -0.123926
C       0.802137   -0.500942    1.094295
C       0.744651   -1.917989    1.551367
C       0.259693   -3.012445    0.610615
C       1.241591   -3.027075   -0.584277
O       0.515660   -2.714137   -1.772999
C       2.343043   -1.988610   -0.213946
N       2.019053   -1.339323    1.067109
H      -1.217597    1.381793    1.016701
H      -1.779016    1.052679   -0.627986
H      -1.941417   -0.182820    0.628330
H      -0.006202   -0.697678   -0.909326
H       0.707669    0.864257   -0.542223
H       0.875232    0.238639    1.893425
H       0.692898   -2.126513    2.617599
H       0.263704   -3.973878    1.131114
H      -0.755536   -2.850928    0.236582
H       1.691524   -4.022467   -0.701450
H       1.137275   -2.707434   -2.507846
H       3.309244   -2.488759   -0.085384
H       2.460076   -1.250183   -1.015716
