14

C      -0.021392    1.394075    0.010147
C       1.278485    1.857667    0.000092
N       2.103132    0.761207   -0.013868
C       3.456449    0.623224   -0.027724
N       4.040174   -0.534380   -0.039680
C       3.214799   -1.633068   -0.037682
N       1.909179   -1.629474   -0.025020
C       1.306235   -0.423475   -0.012609
C      -0.014621   -0.021653    0.002359
H      -0.898634    2.023680    0.022067
H       1.681210    2.857575    0.001652
H       4.040197    1.540791   -0.028369
H       3.718826   -2.594498   -0.047793
H      -0.864799   -0.683754    0.006977
