16

O      -0.692771    0.631227    0.672846
C       0.120187    0.893296   -0.175056
C       1.286710    1.845130    0.037635
C       1.372197    2.902324   -1.067825
C       2.580531    3.836686   -1.188711
C       3.791766    3.132976   -1.628390
N       2.777286    3.490820   -2.670712
C       1.729589    2.494305   -2.514212
O       1.306262    1.711357   -3.305359
H       0.069236    0.443358   -1.189427
H       1.180628    2.308998    1.022660
H       2.203720    1.240340    0.045285
H       0.443842    3.484806   -1.103130
H       2.588035    4.874667   -0.879988
H       4.706997    3.704830   -1.737883
H       3.943998    2.082823   -1.392662
