21

C       0.073477    1.632630    0.040637
C      -0.097527    0.110336    0.007259
C       0.655805   -0.543829   -1.147016
C       2.201821   -0.563979   -1.145598
C       2.737621   -1.469371   -0.072762
C       2.208353   -2.085220   -1.342313
C       0.695856   -2.083065   -1.292154
C      -0.240673   -3.126069   -0.867866
O      -0.100572   -2.753195   -2.250706
H       1.127617    1.908123    0.152180
H      -0.293319    2.092465   -0.883882
H      -0.476909    2.077264    0.875379
H       0.237768   -0.317640    0.959992
H      -1.163280   -0.138219   -0.080284
H       0.296270   -0.140081   -2.101012
H       2.829556    0.171691   -1.632458
H       3.818135   -1.479129    0.029739
H       2.206020   -1.605708    0.865599
H       2.810945   -2.695882   -2.002702
H       0.131936   -4.117376   -0.611860
H      -1.192204   -2.856105   -0.411333
