20

C       0.529024    1.460782    0.098452
C      -0.077695    0.067552   -0.023023
O      -1.479134    0.145202   -0.207111
C       0.661249   -0.895229   -1.008502
C       1.198202   -1.727803    0.208975
C       2.691866   -1.530072    0.503573
C       0.238540   -0.906983    1.140422
C       0.892282   -3.152849    0.140151
N       0.650638   -4.282566    0.083814
H       1.604760    1.424693    0.293329
H       0.384495    2.025620   -0.831386
H       0.047868    2.010318    0.913374
H      -1.656968    0.755190   -0.931709
H      -0.050250   -1.453730   -1.617773
H       1.434638   -0.462897   -1.648851
H       2.932972   -0.464662    0.554871
H       2.963616   -1.987987    1.459139
H       3.306557   -1.982624   -0.279973
H       0.705795   -0.480884    2.031280
H      -0.652924   -1.464885    1.427658
