19

C      -0.442111    1.360909   -0.075124
C       0.135312   -0.047824   -0.092827
C       1.482249   -0.221701   -0.855248
C       2.190328   -0.659826    0.467859
C       0.853957   -0.503133    1.235630
C       0.533022   -1.892135    1.704678
C       1.451922   -2.794738    1.333141
C       2.538897   -2.147413    0.554161
O       3.499886   -2.687370    0.054814
H       0.307517    2.090851    0.251662
H      -0.781999    1.658265   -1.073164
H      -1.297424    1.432403    0.605932
H      -0.632511   -0.759107   -0.411083
H       1.493103   -0.971549   -1.649324
H       1.872809    0.713815   -1.262743
H       3.038426   -0.042672    0.766355
H       0.805176    0.239174    2.037718
H      -0.376268   -2.119146    2.253332
H       1.437036   -3.859571    1.528784
