17

C       0.008574    1.444189    0.139762
C       1.459872    1.910845   -0.139600
C       2.233629    0.614940   -0.047354
C       3.581617    0.333348    0.052926
C       3.963976   -1.013698    0.086130
N       3.102768   -2.029544    0.022355
C       1.797096   -1.754382   -0.083239
C       1.322781   -0.446493   -0.122813
N       0.016658    0.026419   -0.268600
H      -0.222384    1.551931    1.210485
H      -0.735705    2.009204   -0.427056
H       1.543247    2.330816   -1.150126
H       1.794064    2.679379    0.561541
H       4.328248    1.118626    0.114845
H       5.014341   -1.279641    0.172466
H       1.119048   -2.603908   -0.131151
H      -0.719837   -0.548397    0.115475
