21

C      -1.055739    1.028511   -1.061305
C      -0.027734   -0.046347   -0.786264
O       1.294487    0.299339   -1.250010
C       1.903063   -0.300419   -0.086929
C       3.084989    0.483641    0.438479
C       0.521906   -0.311326    0.661172
C       0.315022    0.841554    1.651307
C       0.139614   -1.580320    1.255611
C      -0.175581   -2.634246    1.742652
H      -0.771407    1.987873   -0.623115
H      -1.156156    1.166386   -2.142630
H      -2.033114    0.732697   -0.665959
H      -0.352223   -0.995302   -1.237517
H       2.210815   -1.332571   -0.309175
H       2.817633    1.515583    0.676909
H       3.492503    0.005565    1.335386
H       3.873033    0.504650   -0.321060
H       0.600201    1.800172    1.212252
H      -0.733980    0.900539    1.954481
H       0.915075    0.683517    2.551731
H      -0.453363   -3.565119    2.171466
