20

O       0.025321    1.409266    0.122793
C       0.043930    0.003922   -0.014468
C      -1.365964   -0.574675   -0.033060
C      -1.410813   -2.099776   -0.147616
C      -2.854096   -2.606547   -0.005801
C      -3.497699   -2.032816    1.265054
C      -3.333290   -0.512397    1.298215
O      -1.969196   -0.136624    1.186403
H      -0.590418    1.586366    0.844536
H       0.551162   -0.225741   -0.957562
H       0.612106   -0.474855    0.800396
H      -1.917712   -0.125876   -0.878234
H      -0.982050   -2.410421   -1.107356
H      -0.785663   -2.531176    0.644786
H      -3.436725   -2.289811   -0.881626
H      -2.878299   -3.701157    0.007478
H      -4.561610   -2.290341    1.318838
H      -3.013284   -2.458422    2.152503
H      -3.916094   -0.052882    0.481228
H      -3.689631   -0.090959    2.242893
