20

C       0.888410    0.833445   -0.921574
C      -0.048621    0.121094    0.072367
C       0.715658   -0.734398    1.050857
C       0.853038   -2.215383    0.772525
C      -0.490445   -2.911414    1.038264
C      -0.699972   -3.424825    2.447565
O      -1.329092   -3.005773    0.172879
N       1.272805   -0.319997    2.125754
O       1.090828    1.060512    2.313524
H       1.480369    0.115315   -1.498328
H       0.307212    1.431842   -1.629106
H       1.576176    1.496666   -0.391597
H      -0.620001    0.869585    0.628248
H      -0.755766   -0.514524   -0.468180
H       1.107906   -2.372769   -0.280062
H       1.636139   -2.628090    1.412243
H      -0.037956   -4.281112    2.625105
H      -0.423138   -2.655319    3.175509
H      -1.736422   -3.733242    2.588053
H       1.555330    1.213540    3.142947
