21

C      -0.030863    1.444416    0.095919
C      -0.062668   -0.042032   -0.065735
C       0.581296   -0.946248   -1.146620
C       0.036945   -1.846254   -0.008535
C       0.249530   -3.308098    0.238040
O       0.612971   -0.881194    0.967995
C      -1.279188   -1.013452   -0.013118
C      -2.145811   -1.004075    1.225428
O      -2.947975    0.175039    1.171019
H       1.000938    1.802175    0.166279
H      -0.508410    1.922899   -0.764855
H      -0.578796    1.740729    0.993819
H       0.100420   -1.002850   -2.127346
H       1.669721   -0.891013   -1.204456
H       1.318782   -3.538524    0.267914
H      -0.195482   -3.611962    1.190668
H      -0.209572   -3.898173   -0.561518
H      -1.878810   -1.066530   -0.927790
H      -2.777957   -1.906796    1.246693
H      -1.502733   -1.012486    2.114037
H      -3.468160    0.217641    1.978720
