21

C       0.481503    1.467164   -0.304003
C       0.053902    0.062105    0.072252
O       0.567392   -0.915694   -0.862950
C       1.283235   -1.622164    0.167691
C       2.789262   -1.589766   -0.055073
O       3.369620   -0.360052    0.342583
C       3.218485   -0.171849    1.739148
C       1.757395    0.106980    2.134928
C       0.741643   -0.665275    1.269622
H       1.571089    1.537447   -0.356528
H       0.072647    1.716475   -1.288382
H       0.103248    2.203565    0.413844
H      -1.042557    0.005238    0.118595
H       0.941004   -2.663224    0.242094
H       3.266452   -2.420835    0.493208
H       2.994614   -1.711896   -1.122758
H       3.591759   -1.065293    2.267798
H       3.862684    0.668103    2.013429
H       1.626905   -0.143856    3.192899
H       1.558791    1.179438    2.049567
H       0.002297   -1.155798    1.904292
