19

C       0.331342    1.445992    0.250716
C      -0.211745    0.044056   -0.064948
C       0.354909   -0.503294   -1.334449
O       1.747375   -0.925242   -1.360356
C       0.765349   -1.861510   -1.809529
C       0.669444   -3.194840   -1.143932
C       0.537171   -1.512345   -3.292934
C       0.067305   -0.116571   -2.784266
O      -0.475488    0.815062   -3.301625
H       1.418982    1.421537    0.363169
H       0.087397    2.144343   -0.554898
H      -0.101326    1.828911    1.179176
H       0.019387   -0.647395    0.753365
H      -1.303772    0.079206   -0.160149
H       0.737643   -3.089624   -0.058088
H      -0.276860   -3.684481   -1.394138
H       1.484291   -3.848553   -1.473833
H       1.427152   -1.545453   -3.924762
H      -0.288729   -2.042145   -3.778266
