15

C      -0.131508    1.499355    0.073286
C       0.033207    0.016278   -0.058835
C      -0.139762   -0.670190   -1.211719
C       0.038823   -2.102243   -1.252786
O      -0.079291   -2.834734   -2.192083
O       0.398803   -2.700182   -0.019146
C       0.576877   -2.026056    1.148349
N       0.898398   -2.567021    2.245279
N       0.381207   -0.652938    1.081243
H       0.799953    1.962915    0.417500
H      -0.407877    1.943366   -0.883076
H      -0.909482    1.738281    0.807228
H      -0.414497   -0.177625   -2.132154
H       1.003798   -3.572018    2.128692
H       0.516494   -0.166277    1.953444
