18

C      -1.140783   -0.787647    0.125923
C      -0.512849    0.235237    0.204461
C       0.235320    1.498706    0.261803
C       1.636898    1.318691   -0.308131
C       2.766064    2.077771    0.230123
O       2.588663    0.691312    0.543471
N      -0.389699    2.645219   -0.418161
C      -1.157300    2.414214   -1.641079
C      -1.841255    2.787651   -0.372907
H      -1.681240   -1.700966    0.077271
H       0.350159    1.783157    1.315253
H       1.667486    0.991707   -1.347577
H       3.616703    2.308492   -0.408613
H       2.599344    2.769463    1.054264
H      -1.003468    3.147957   -2.426733
H      -1.290245    1.389451   -1.979757
H      -2.418342    2.006214    0.115786
H      -2.198834    3.800368   -0.211357
