15

O      -0.044181    1.382280    0.586922
C      -0.013256    0.151969   -0.126728
C      -1.345596   -0.437376   -0.145116
C      -2.433862   -0.947501   -0.169926
C      -3.750844   -1.557008   -0.189509
C      -3.767774   -3.040187    0.203989
O      -2.782694   -3.674120    0.493426
C      -5.095178   -3.633926    0.195523
C      -6.201964   -4.106780    0.183523
H       0.854331    1.727460    0.600127
H       0.329146    0.300952   -1.163918
H       0.683091   -0.564149    0.338729
H      -4.437816   -1.031385    0.488527
H      -4.218287   -1.479313   -1.181478
H      -7.171080   -4.544070    0.179514
