17

O      -0.112460    1.338802    0.065195
C       0.026674   -0.031114    0.031794
C      -0.215402   -0.862776   -1.242368
C      -1.076021   -1.045236    0.002204
C       0.008663   -2.074226    0.470524
C       0.575126   -2.149181   -0.974391
O       1.984242   -2.021837   -0.935833
C       2.308924   -1.213757    0.211099
C       0.966800   -0.908021    0.878969
H       0.540405    1.730228   -0.526060
H      -0.479540   -0.384576   -2.177130
H      -2.141914   -0.968896    0.146650
H      -0.136087   -2.950376    1.096342
H       0.312390   -3.012811   -1.586457
H       2.990221   -1.777861    0.861572
H       2.829688   -0.302800   -0.113654
H       1.000127   -0.650972    1.938167
