18

O      -0.014981    1.392757    0.006260
C      -0.036331   -0.022291    0.001935
C      -1.448365   -0.509144    0.012667
C      -2.553907    0.237460    0.023676
C      -3.815156   -0.587662    0.032282
C      -3.277158   -2.005580    0.024494
C      -1.758118   -1.990971    0.011768
N      -3.932665   -3.094183    0.027520
O      -5.319648   -2.847859    0.039729
H       0.902407    1.679364   -0.001557
H       0.479850   -0.430525   -0.886033
H       0.495252   -0.436182    0.878116
H      -2.553974    1.319539    0.026285
H      -4.449502   -0.411783    0.911635
H      -4.464043   -0.407713   -0.835568
H      -1.354235   -2.505918   -0.870461
H      -1.339485   -2.510033    0.884657
H      -5.683037   -3.739694    0.040765
