21

C      -0.360997    1.458771    0.046222
C       0.092580    0.002111    0.075302
C       0.859047   -0.452179   -1.173946
O       1.633255   -1.583314   -0.778567
C       1.747202   -1.640282    0.634397
C       1.295518   -2.979060    1.272838
O       2.571835   -3.136281    1.924144
C       3.137674   -2.042766    1.173069
C       1.116624   -0.350554    1.165522
H       0.495468    2.133619   -0.064465
H      -1.044834    1.646344   -0.788421
H      -0.883655    1.729902    0.968788
H      -0.784354   -0.647801    0.195376
H       0.207330   -0.749246   -2.002120
H       1.521272    0.351792   -1.533481
H       0.464896   -2.948470    1.988842
H       1.111213   -3.758662    0.522497
H       3.816106   -2.385110    0.381084
H       3.653514   -1.320616    1.817566
H       1.878596    0.437435    1.227434
H       0.682676   -0.471637    2.160882
