11

F       0.046803    0.063551    0.163900
C      -0.022527    1.370750    0.084898
C      -1.190031    2.028620    0.055053
C      -1.101912    3.459974   -0.032878
F      -2.245824    4.123661   -0.063333
N      -0.041021    4.172204   -0.085579
O       1.162754    3.462104   -0.052907
C       1.252351    2.084096    0.030291
N       2.366171    1.485763    0.056992
H      -2.150431    1.532911    0.093642
H       3.140596    2.149711    0.009764
