17

O      -0.196028    0.231443    0.764030
C       0.351417    0.678192   -0.211560
C       1.373090    1.764213   -0.150865
N       2.280998    1.863126   -1.313364
C       1.347928    2.954759   -1.068412
C       0.284138    3.204135   -2.114990
C       0.878826    3.975167   -3.313018
C      -0.113463    4.255269   -4.347187
N      -0.912404    4.469545   -5.153942
H       0.141528    0.297401   -1.233957
H       1.765313    1.936019    0.848596
H       3.221905    2.090808   -1.005376
H       1.750198    3.863871   -0.619479
H      -0.129464    2.259271   -2.473741
H      -0.539761    3.777137   -1.677155
H       1.310476    4.926436   -2.979440
H       1.694226    3.390048   -3.752287
