22

C      -0.684995    0.985088   -0.083844
O      -0.526445   -0.380210   -0.407045
C       0.657365   -0.700705   -1.145034
C       1.888338   -0.718060   -0.236765
C       0.434548   -2.050573   -1.832134
C      -0.746154   -2.097716   -2.830533
C      -2.035709   -2.774098   -2.348417
N      -2.425445   -2.452567   -1.084586
O      -2.658030   -3.540771   -3.060913
H       0.072510    1.335665    0.629881
H      -0.637486    1.617884   -0.982361
H      -1.670683    1.096163    0.374289
H       0.790720    0.069501   -1.923702
H       2.786811   -0.950576   -0.816472
H       2.049411    0.249592    0.246465
H       1.773592   -1.476848    0.543615
H       1.360836   -2.290168   -2.364728
H       0.314624   -2.822943   -1.063743
H      -1.005463   -1.079234   -3.147666
H      -0.464535   -2.642613   -3.733031
H      -1.952890   -1.722856   -0.569454
H      -3.304479   -2.820246   -0.760518
