22

C      -0.117221    1.496105    0.182966
C       0.141988    0.028280    0.041084
C       0.558955   -0.716230   -1.236305
C       1.333530   -1.743411   -0.341747
C       0.883938   -0.949570    0.895611
C       1.620071   -0.793362    2.191895
C       1.557592   -2.045024    3.066406
O       2.300048   -1.780203    4.246926
N      -0.609056   -0.976926    0.842852
H       0.670468    2.084561   -0.300101
H      -1.071569    1.774553   -0.280452
H      -0.160250    1.793930    1.236590
H      -0.265570   -1.111582   -1.834933
H       1.226102   -0.130374   -1.873785
H       0.991944   -2.780700   -0.383915
H       2.414200   -1.707087   -0.501733
H       2.674710   -0.559879    2.000010
H       1.210281    0.049758    2.762328
H       0.507509   -2.284382    3.295327
H       1.973686   -2.903119    2.515008
H       2.271947   -2.564588    4.802279
H      -0.935897   -0.490123    1.679667
