19

C       0.018729    1.547699    0.152086
C       1.309507    0.772268    0.040380
C      -0.006013    0.034854    0.018992
C      -0.155102   -0.623505   -1.371853
C      -0.931105    0.259208   -2.362566
O      -0.002062    1.282691   -2.753121
C       1.292918    0.737863   -2.648358
C       1.977464    0.529332   -1.297960
C       1.263008   -0.610462   -2.012458
H      -0.226092    1.943890    1.133045
H      -0.289582    2.171020   -0.675315
H       1.961399    0.725176    0.906323
H      -0.335963   -0.539571    0.877758
H      -0.580636   -1.625597   -1.295672
H      -1.248879   -0.312217   -3.247331
H      -1.804796    0.747625   -1.922293
H       1.920295    0.976128   -3.501760
H       3.060524    0.593057   -1.328501
H       1.726517   -1.503375   -2.414401
