15

O      -0.168336    1.314810   -0.068903
N       0.023206   -0.081167    0.002993
C      -1.088641   -0.687413   -0.025087
C      -2.558729   -0.273959   -0.014917
C      -2.892396   -1.778417    0.097976
O      -3.849259   -2.291000    0.948112
C      -2.327729   -2.539873   -1.055744
C      -1.394814   -2.136872    0.089477
H       0.735131    1.643386   -0.013687
H      -2.801392    0.271435    0.901657
H      -2.946080    0.275466   -0.878325
H      -4.666634   -2.411247    0.452144
H      -2.567193   -3.598986   -1.052730
H      -2.219502   -2.096726   -2.042313
H      -0.842312   -2.876900    0.652909
