18

C      -0.066046    1.559233   -0.045588
C       0.024644    0.064486   -0.035179
C       0.616134   -0.912116   -1.091775
C      -0.409683   -1.905060   -0.699708
N       0.916360   -1.895396   -0.003412
C       0.610861   -0.862434    1.080511
C      -0.790176   -1.173165    1.628863
C      -1.216185   -0.902052    0.160677
O      -2.480990   -0.494671   -0.233665
H       0.925230    2.017283   -0.136583
H      -0.679654    1.907374   -0.883466
H      -0.524705    1.931770    0.876963
H       1.229837   -0.802306   -1.978378
H      -0.734110   -2.823034   -1.177073
H       1.469669   -0.637207    1.710488
H      -0.973450   -2.157314    2.069643
H      -1.144940   -0.380344    2.294096
H      -3.069699   -1.257873   -0.228726
