17

O       0.261668    1.202231   -0.765896
C       0.070914    0.127954    0.136513
C      -1.363493   -0.305226    0.178505
C      -2.203882   -0.697410    1.189483
C      -2.714411   -1.005762    2.591992
C      -4.087270   -1.315893    1.883224
N      -3.407197   -0.985233    0.608643
C      -3.309006   -0.762628   -0.726877
N      -2.079858   -0.361870   -1.005482
H      -0.351259    1.035332   -1.493824
H       0.710229   -0.727973   -0.141939
H       0.397430    0.460220    1.128470
H      -2.260174   -1.864183    3.092161
H      -2.744616   -0.162495    3.285733
H      -4.428121   -2.351998    1.938780
H      -4.907831   -0.637295    2.126117
H      -4.110033   -0.898687   -1.435839
