20

C       0.026563    1.610165    0.011454
C       0.078972    0.088248    0.046107
C       1.074332   -0.709195   -0.799453
C       1.197870   -1.766136    0.227675
N       2.373710   -0.894415   -0.049885
C       2.155266   -0.214529    1.270011
C       0.689648   -0.684410    1.263413
C      -0.102115   -0.911563    2.518862
O      -0.322782    0.359145    3.121543
H       1.018779    2.062236    0.090695
H      -0.415372    1.956323   -0.929504
H      -0.584292    1.987261    0.836805
H      -0.921480   -0.322467   -0.138314
H       1.140448   -0.794273   -1.876748
H       1.209721   -2.847870    0.193629
H       2.757904   -0.732758    2.021655
H       2.373664    0.857029    1.299388
H      -1.055160   -1.409679    2.275347
H       0.454181   -1.581682    3.195031
H      -0.821486    0.226082    3.933023
