19

C      -0.210091    1.454433   -0.134428
O      -0.087298    0.072374    0.123836
C      -1.280397   -0.684635   -0.062561
C      -1.615546   -0.890677   -1.539344
C      -1.014295   -1.995372    0.678889
C      -0.486545   -1.748349    2.097881
O       0.115216   -2.575090    2.729676
C      -2.226854   -2.909018    0.821742
O      -3.341397   -2.632657    0.461006
H       0.732867    1.918642    0.163858
H      -0.383516    1.670291   -1.197397
H      -1.028476    1.904028    0.448641
H      -2.121154   -0.168303    0.429521
H      -2.524651   -1.486920   -1.638834
H      -1.786774    0.065393   -2.041116
H      -0.790831   -1.400352   -2.048077
H      -0.236027   -2.581184    0.171655
H      -0.744961   -0.756879    2.522030
H      -1.995766   -3.871435    1.324208
