17

C       0.015426    1.583368   -0.052525
C      -0.002130    0.054194    0.003132
C       0.687869   -0.582507   -1.203397
C       0.679502   -2.096568   -1.164204
O       0.193637   -2.777860   -0.296404
O       1.299941   -2.606325   -2.250099
C       1.348540   -4.036470   -2.312696
H       1.040301    1.970863   -0.074803
H      -0.496874    1.956785   -0.946464
H      -0.483505    2.014828    0.820371
H       0.484975   -0.296246    0.919335
H      -1.033496   -0.310154    0.058278
H       0.215563   -0.268642   -2.142962
H       1.732196   -0.254758   -1.282948
H       1.883999   -4.443782   -1.451144
H       0.340034   -4.457904   -2.327098
H       1.874978   -4.276186   -3.236752
