16

N       0.096429   -1.122611   -0.064750
C       0.041108    0.032807   -0.016578
C      -0.038871    1.455429    0.053042
C      -1.225074    2.265945    0.597603
C      -0.742043    3.456498   -0.293770
O       0.090826    4.348554    0.422509
C       1.223405    3.591036    0.865621
C       1.222063    2.331533    0.006803
C       0.194197    2.485005   -1.061625
H      -2.173687    1.852083    0.248679
H      -1.275187    2.450213    1.674197
H      -1.495198    4.029179   -0.830408
H       2.128340    4.186367    0.703293
H       1.143442    3.369760    1.937685
H       2.150582    1.817571   -0.207257
H       0.331179    2.339362   -2.123479
