16

N       0.432018    0.366534    0.965225
C      -0.112650    0.140353   -0.263209
O       0.325131    0.594765   -1.302489
C      -1.330504   -0.740632   -0.210940
C      -2.245816   -1.240397   -1.340244
C      -2.879546   -1.872345   -0.075452
C      -1.491988   -2.072636    0.601602
O      -1.853093   -1.404992    1.854817
C      -2.523239   -0.636816    0.802308
H       1.254961    0.941630    1.036163
H       0.020475   -0.046440    1.788913
H      -2.836016   -0.480273   -1.856310
H      -1.795583   -1.928592   -2.058653
H      -3.752937   -2.514322    0.029444
H      -0.837757   -2.942879    0.640104
H      -3.117806    0.231480    1.084022
