18

C      -0.004927    1.622672    0.056914
C       1.496025    1.208375   -0.000420
C       1.171446    0.176817    1.120205
C      -0.000136    0.065148    0.100307
C       1.072791    0.116196   -1.033216
C       0.675340    0.508822   -2.480594
O       1.358268   -0.458168   -3.311474
C       2.026061   -1.255815   -2.445498
N       1.947499   -1.043217   -1.199659
H      -0.325496    2.122971    0.973577
H      -0.435299    2.108399   -0.822770
H       2.365395    1.864453   -0.072903
H       1.833675   -0.682629    1.202199
H       0.912097    0.601932    2.092881
H      -0.862786   -0.602223    0.144432
H      -0.397518    0.426611   -2.677907
H       1.015747    1.506472   -2.773055
H       2.598533   -2.046632   -2.917696
