19

C       0.117714    1.603438    0.186138
C      -0.003431    0.078109    0.044740
N       0.663971   -0.695219    1.078862
C       0.024813   -0.766463    2.382758
C       2.038104   -0.798044    1.028419
C       2.915412   -0.538696   -0.012528
N       4.125560   -0.890735    0.504297
N       4.028967   -1.321368    1.760968
N       2.764047   -1.263230    2.090269
H       1.165353    1.918628    0.175181
H      -0.398865    2.105876   -0.638156
H      -0.328916    1.949380    1.123236
H      -1.060999   -0.209238    0.052733
H       0.390642   -0.239700   -0.928252
H       0.477886   -1.569361    2.964780
H       0.117001    0.162762    2.966159
H      -1.038412   -0.983098    2.241823
H       2.799123   -0.159511   -1.011364
H       5.030572   -0.852446    0.064187
