13

O       0.036867    1.328548    0.224933
C       0.058047   -0.000584    0.011328
C       0.096069   -0.754455   -1.149450
C       0.101819   -2.106063   -0.733816
O       0.135583   -3.150656   -1.584880
C       0.067523   -2.146363    0.656485
N       0.040738   -0.812279    1.090526
C       0.059583   -3.257749    1.504427
N       0.054327   -4.212132    2.169765
H       0.052479    1.781691   -0.624130
H       0.117115   -0.391571   -2.163806
H       0.132723   -3.972406   -1.078506
H       0.013135   -0.503523    2.046706
