21

C       0.004080    1.574882    0.034393
C       0.013458    0.046295    0.045429
C       0.743223   -0.580239   -1.188767
C       1.319867   -1.937577   -0.724011
C       1.544164   -1.775890    0.772294
C       2.262596   -0.531883    1.228248
C       0.752834   -0.574481    1.240082
C      -1.407895   -0.497742    0.074226
O      -2.409676    0.169630    0.117317
H       1.026665    1.962570    0.054398
H      -0.497138    1.959373   -0.858685
H      -0.533293    1.968751    0.901028
H       0.079020   -0.680638   -2.052695
H       1.545150    0.097556   -1.495814
H       0.598335   -2.744062   -0.897954
H       2.230632   -2.202184   -1.272319
H       1.621118   -2.667657    1.384329
H       2.755846   -0.567626    2.193334
H       2.775584    0.086139    0.498259
H       0.253253   -0.566733    2.203462
H      -1.469475   -1.611215    0.054587
