15

O      -0.023793   -0.003882   -0.108215
C      -0.009271    1.185802   -0.072620
O       1.155449    1.882836    0.068568
C       1.043908    3.266045    0.105529
C       1.271454    4.119773   -1.133262
C       2.169284    4.319672    0.044182
C       1.449187    5.194988    1.085093
C       0.391832    4.063526    1.199649
O      -0.469877    3.804855    1.988774
H      -0.893517    1.841390   -0.140599
H       1.688010    3.542059   -1.952372
H       0.559332    4.885686   -1.428303
H       3.230862    4.117400    0.019499
H       1.980842    5.304626    2.034127
H       1.105364    6.174999    0.743940
