18

C      -0.146649    1.573783    0.098029
C       0.033681    0.072741   -0.017247
C       0.802182   -0.604060   -1.161122
C       2.118587   -0.135858   -0.455499
C       3.175162   -1.225092   -0.607997
O       3.350698   -2.028285    0.568467
C       2.368010   -2.421274   -0.400810
C       0.996987   -1.799037   -0.168787
N       1.222136   -0.563050    0.737247
H       0.725188    2.145053   -0.228866
H      -1.000856    1.893698   -0.508351
H      -0.356430    1.844048    1.138176
H      -0.900128   -0.429067    0.263516
H       0.572414   -0.634800   -2.233795
H       2.433304    0.905284   -0.464409
H       4.026683   -1.135436   -1.273942
H       2.509615   -3.380809   -0.886124
H       0.152042   -2.428557    0.112774
