18

O       0.050665    1.371395   -0.068473
C       0.035009   -0.024617   -0.060592
C      -0.447715   -0.715685    1.197829
O      -0.915664    0.126722    2.222881
C      -1.294145   -0.740181   -0.038228
C      -2.699350   -0.144651   -0.153304
N      -3.209832   -1.388368   -0.845956
C      -2.405114   -1.526776   -2.073265
C      -1.794106   -1.945289   -0.794991
H      -0.365603    1.646600    0.760446
H       0.863882   -0.447535   -0.621614
H       0.022984   -1.640083    1.530540
H      -0.179796    0.303855    2.819839
H      -3.200705   -0.015465    0.807463
H      -2.800427    0.768270   -0.749309
H      -2.777137   -2.304479   -2.733545
H      -2.042913   -0.631423   -2.574939
H      -1.597610   -2.982412   -0.539691
