23

C      -0.060115    1.414513   -0.095164
O      -0.019487    0.042499    0.214117
C      -1.267818   -0.608973    0.089574
C      -1.722702   -0.883126   -1.385900
C      -1.897931   -2.418256   -1.418129
C      -0.498086   -3.072370   -1.380713
C      -0.011129   -2.785789    0.076203
C      -1.202169   -2.023239    0.701649
C      -2.408900   -2.695358    0.014363
H       0.942603    1.816244    0.071940
H      -0.342030    1.600065   -1.142712
H      -0.770885    1.955301    0.550444
H      -2.030778   -0.013658    0.616290
H      -2.661132   -0.369910   -1.617339
H      -0.967388   -0.535512   -2.097539
H      -2.530406   -2.773605   -2.234252
H      -0.567497   -4.147914   -1.571735
H       0.170190   -2.651176   -2.137636
H       0.172360   -3.715280    0.623111
H       0.903837   -2.193340    0.108454
H      -1.200924   -2.015169    1.793028
H      -3.365078   -2.209384    0.235738
H      -2.494193   -3.761009    0.248459
