23

C      -0.086855    1.554439    0.008735
C      -0.005343    0.013081    0.003034
C      -1.445752   -0.541552    0.010641
C       0.731376   -0.465682   -1.238074
C       1.846218   -1.188347   -1.123835
C       2.354698   -1.516746    0.264154
C       1.142801   -2.000267    1.116447
C       0.773845   -0.490957    1.248668
C       2.302199   -0.211953    1.114828
H       0.903997    2.015803    0.012160
H      -0.618921    1.918199   -0.877128
H      -0.631282    1.908425    0.891966
H      -1.995714   -0.205421   -0.875206
H      -1.462556   -1.634416    0.015499
H      -1.990381   -0.187853    0.893863
H       0.315974   -0.197248   -2.206911
H       2.391065   -1.542366   -1.993927
H       3.270192   -2.110284    0.258056
H       0.433558   -2.681177    0.641486
H       1.459829   -2.411681    2.078921
H       0.274230   -0.166216    2.166420
H       2.807972   -0.332238    2.077040
H       2.633958    0.712828    0.638417
