16

N       0.175358    1.104530   -0.197456
C       0.003074   -0.180449    0.164145
O       0.890415   -0.965956    0.454532
C      -1.461703   -0.617708    0.187886
N      -1.597531   -1.929540    0.487447
N      -2.363005    0.255918   -0.106021
C      -3.749206   -0.208188   -0.169670
C      -4.255579   -0.437559    1.245502
O      -4.208148   -1.510951    1.801871
H       1.101023    1.494501   -0.232895
H      -0.644863    1.651390   -0.409414
H      -0.736310   -2.388990    0.750552
H      -2.474767   -2.278104    0.846752
H      -4.350421    0.563810   -0.660022
H      -3.846208   -1.150780   -0.728322
H      -4.617539    0.463605    1.783347
