15

N      -0.016093    1.252972   -0.485688
C       0.020567    0.081973   -0.055772
O       1.028283   -0.626220    0.585812
C       0.259009   -1.859932    0.587000
C      -0.583100   -2.061599    1.853916
N      -1.626276   -1.137400    1.321855
C      -0.958778   -1.092178   -0.023842
C      -1.728356   -1.453402   -1.177932
C      -2.393219   -1.771201   -2.127682
H       0.853405    1.754428   -0.296628
H       0.804887   -2.681279    0.127718
H      -0.913690   -3.101783    1.958402
H      -0.125695   -1.729071    2.789961
H      -2.550628   -1.548887    1.268698
H      -2.973183   -2.036837   -2.977221
