20

C       0.175612    1.349948    0.071029
N       0.005637   -0.085412    0.248057
C      -1.110927   -0.595059   -0.057347
C      -1.354586   -2.077015    0.115023
C      -2.285915   -2.646743   -0.929209
C      -2.093965   -4.078975   -1.331113
C      -3.237519   -1.852126   -1.413802
C      -3.365963   -0.432242   -0.951501
O      -2.127764    0.166536   -0.546973
H       1.200560    1.622889    0.334483
H      -0.013643    1.664070   -0.963949
H      -0.509095    1.925645    0.708153
H      -0.379997   -2.569207    0.115559
H      -1.784371   -2.250896    1.114219
H      -2.150134   -4.742406   -0.458563
H      -2.847650   -4.400696   -2.054565
H      -1.101973   -4.232483   -1.774153
H      -3.961006   -2.203027   -2.143866
H      -3.747179    0.208931   -1.752787
H      -4.077220   -0.352440   -0.114087
