16

C      -0.044836    1.573411   -0.054900
C       1.521688    1.385061    0.023986
C       1.182026    0.168583    0.972941
C      -0.047067   -0.002619   -0.000142
C       0.702730   -0.293006   -1.291982
C       1.728676    0.619577   -1.269363
N       2.404142    0.382382   -2.399846
N       1.815200   -0.643642   -3.099044
N       0.772810   -1.046838   -2.405811
H      -0.451311    2.032609    0.851227
H      -0.451924    2.049449   -0.949282
H       2.196105    2.187086    0.315164
H       1.904348   -0.648619    1.024756
H       0.890480    0.496172    1.975357
H      -0.929922   -0.575478    0.270696
H       3.225805    0.815507   -2.788725
