21

C      -0.044704    1.483945    0.050168
C       0.000847   -0.008443   -0.007023
C       0.280394   -0.989557   -1.189055
C      -0.615147   -2.033947   -0.541806
C       0.870112   -2.000446   -0.218450
C       0.595376   -1.027458    0.971454
C       1.305329   -0.828925    2.271053
C      -0.902058   -1.061426    0.645466
C      -2.095360   -0.907405    1.531185
H       0.914404    1.927975   -0.243762
H      -0.815748    1.889925   -0.616251
H      -0.270589    1.832934    1.063886
H       0.504475   -0.826168   -2.235546
H      -1.203474   -2.818161   -1.001075
H       1.629432   -2.754054   -0.384432
H       2.350017   -0.531196    2.117953
H       0.825118   -0.044955    2.867021
H       1.306824   -1.745351    2.874007
H      -1.940012   -0.110645    2.266973
H      -2.994171   -0.652654    0.956146
H      -2.307398   -1.829878    2.085751
