18

C       0.043002    1.353174    0.123066
O       0.107779   -0.076321    0.009446
C       0.604671   -0.542516   -1.149209
O       0.990842    0.162818   -2.048423
C       0.598233   -2.064799   -1.167656
C      -0.845265   -2.599390   -1.196411
C       1.434452   -2.549349   -2.371078
C       1.571660   -4.003013   -2.398949
N       1.672916   -5.154230   -2.405217
H       1.040813    1.789853    0.036461
H      -0.594188    1.772124   -0.659456
H      -0.378239    1.552288    1.108052
H       1.071806   -2.404513   -0.240045
H      -1.398351   -2.253857   -0.321035
H      -1.369705   -2.256159   -2.094539
H      -0.842883   -3.692323   -1.199555
H       0.971490   -2.211551   -3.303764
H       2.431022   -2.098471   -2.344939
