18

C       0.147307    1.452062   -0.319611
N      -0.222530    0.162833    0.251109
C       0.558562   -0.356504    1.290728
C       1.840328   -0.069416    1.660410
O       2.730785    0.858378    1.238572
O       2.239356   -0.871317    2.694993
C       1.186194   -1.685111    2.982201
C       0.129789   -1.421618    2.172136
C      -1.207562   -2.090164    2.155253
H       1.133354    1.382862   -0.783574
H      -0.578181    1.712369   -1.094825
H       0.186368    2.268254    0.418501
H      -1.204887    0.131985    0.489601
H       3.514725    0.413484    0.892341
H       1.339250   -2.393494    3.779640
H      -2.020080   -1.388372    2.385804
H      -1.427576   -2.523780    1.172438
H      -1.253670   -2.894245    2.894667
