19

C      -0.043673    1.536733    0.016618
C       1.508677    1.587130    0.009000
C       2.201272    1.442795    1.391703
C       2.095029   -0.118996    1.305805
C       0.980883   -0.763516    2.122827
O      -0.077313    0.130158    2.498732
C      -0.276020   -0.710923    1.352942
C      -0.014099   -0.030742    0.013912
C       1.541113    0.031774   -0.150207
H      -0.547456    2.002479    0.865713
H      -0.466247    1.931548   -0.910700
H       1.970192    2.278160   -0.697257
H       3.241510    1.776402    1.360394
H       1.702107    1.908348    2.243627
H       3.040210   -0.651876    1.423139
H       1.201738   -1.539804    2.851879
H      -1.071771   -1.444672    1.459298
H      -0.578570   -0.500451   -0.793455
H       2.021163   -0.503128   -0.970470
