16

C      -0.088629   -1.136791   -0.075972
C      -0.025360    0.064515   -0.047726
C      -0.036633    1.485827    0.021553
C      -1.375046    2.317373    0.312273
C      -0.527723    3.483077   -0.206474
C       0.180006    4.126613    0.742384
C       1.534687    3.441453    0.856780
N       1.351062    2.176049    0.086268
C       0.415175    2.513176   -0.956439
H      -0.122342   -2.197493   -0.110076
H      -2.147752    1.917199   -0.352008
H      -1.748607    2.388115    1.336162
H      -0.282939    4.576231    1.615986
H       2.410899    3.945189    0.427862
H       1.748451    3.246712    1.913628
H       0.630973    2.430219   -2.015301
