18

C      -0.156391    1.449285    0.135493
N      -0.074431    0.001264    0.061900
C       0.679070   -0.618405    0.859083
O       1.448011   -0.069923    1.844107
C       2.344665   -1.055918    2.429113
C       2.498480   -0.742408    3.904530
C       1.729879   -2.419479    2.092191
C       0.845506   -2.124945    0.885945
O       0.365194   -2.908682    0.115261
H       0.677674    1.919660    0.668667
H      -0.213480    1.850019   -0.881156
H      -1.089655    1.729691    0.640094
H       3.311645   -0.946386    1.921243
H       1.537084   -0.833839    4.419175
H       3.208118   -1.436793    4.364877
H       2.871007    0.275903    4.044170
H       2.460127   -3.201489    1.879006
H       1.084980   -2.771596    2.907300
