14

C       0.319547    1.828188    0.158578
C      -0.050971    0.380397   -0.147738
O       0.537027    0.044819   -1.420851
C      -0.096425   -0.926811   -2.126341
O      -1.086235   -1.503054   -1.758858
C       0.579500   -1.159507   -3.379127
C       1.104852   -1.395161   -4.433193
C       0.448519   -0.543637    0.884052
N       0.843081   -1.244421    1.712751
H       1.404395    1.947060    0.194821
H      -0.085481    2.477050   -0.621039
H      -0.100829    2.123230    1.122868
H      -1.134414    0.249533   -0.218884
H       1.571411   -1.606649   -5.364863
