18

C       0.152265    1.418237    0.094302
O      -0.124286    0.028083   -0.071684
C       0.547947   -0.547736   -1.122827
C      -0.033525   -0.992880   -2.290011
N      -1.352817   -0.886947   -2.768565
N       0.948534   -1.584770   -3.036621
C       2.166688   -1.501141   -2.368832
C       1.942409   -0.869320   -1.169462
N       2.858448   -0.533512   -0.150987
H       1.221001    1.593985    0.263843
H      -0.162335    1.991820   -0.787678
H      -0.416927    1.751305    0.966132
H      -1.881516   -0.289143   -2.142441
H      -1.822752   -1.788983   -2.784456
H       0.837481   -1.811853   -4.008617
H       3.064650   -1.919879   -2.791460
H       3.717792   -1.064593   -0.221081
H       2.455402   -0.695111    0.765650
