17

C      -0.106184   -1.209981    0.160841
C      -0.031041   -0.012164    0.090179
C       0.047244    1.433636   -0.019894
O      -0.324271    2.142719    1.191216
C       0.841420    2.999476    1.094952
C       1.829656    2.871966    2.265394
O       3.005724    2.290805    1.717815
C       2.610936    1.426224    0.658497
C       1.435846    2.136147   -0.036504
H      -0.173387   -2.268017    0.228576
H      -0.581112    1.767678   -0.856775
H       0.556567    4.030116    0.862066
H       2.111566    3.830659    2.709106
H       1.378288    2.233333    3.039373
H       3.478130    1.284029    0.009626
H       2.297857    0.445434    1.044703
H       1.709989    2.619782   -0.972945
