14

O      -0.040247    1.326220    0.216185
N       0.016032   -0.038195   -0.016000
C      -1.155371   -0.559343   -0.061910
C      -2.492029    0.023741    0.051793
C      -3.433786   -0.933552    0.012579
C      -2.841711   -2.317803   -0.028217
O      -3.400841   -3.144818   -1.020803
C      -1.346775   -2.030712   -0.283845
O      -0.559912   -2.858636   -0.665213
H       0.890502    1.579030    0.225367
H      -2.663297    1.087323    0.137882
H      -4.503750   -0.767945    0.044175
H      -2.929735   -2.787701    0.969691
H      -2.709315   -3.775107   -1.265019
