12

N      -0.113036    1.329934    0.008745
C       0.028435    0.068896    0.001130
N      -1.146896   -0.717478    0.003691
N      -1.221142   -2.024916   -0.002941
C      -0.077515   -2.669674   -0.013109
C       1.170411   -1.935391   -0.016473
N       1.230600   -0.648040   -0.009864
C      -0.096458   -4.095138   -0.020685
N      -0.045373   -5.251617   -0.027221
H       0.802599    1.775574    0.005738
H      -2.030253   -0.222780    0.011518
H       2.105565   -2.493667   -0.024995
