16

O      -0.025308    0.203986    0.641862
C      -0.044997    1.259282    0.070824
C      -1.217243    2.160278   -0.153660
C      -0.737054    3.335122   -0.598855
C      -0.750899    4.623213    0.175783
C       0.514636    4.240178    1.050138
C       1.428436    3.387317    0.121184
C       0.675945    3.122858   -1.107572
N       1.158800    1.953765   -0.374864
H      -2.137326    1.998437    0.394465
H      -0.545529    5.513044   -0.426376
H      -1.648472    4.786467    0.774405
H       1.077631    5.127894    1.354887
H       0.200441    3.710359    1.953176
H       2.494072    3.584382    0.142622
H       0.976577    3.278485   -2.138417
