18

O      -0.104165    1.323049    0.158216
N       0.029819   -0.073774    0.053535
C      -1.100069   -0.639119   -0.094239
C      -2.464609    0.014946   -0.223572
C      -3.317817   -1.050748   -0.892100
C      -2.786427   -1.628341   -2.193932
C      -2.547094   -2.362142   -0.913541
O      -3.162483   -3.606154   -0.795643
C      -1.209270   -2.144527   -0.216125
H       0.813420    1.608871    0.218667
H      -2.853313    0.271557    0.770989
H      -2.390803    0.952969   -0.782080
H      -4.391336   -1.050156   -0.743903
H      -3.519415   -2.075267   -2.855365
H      -1.956792   -1.136385   -2.693690
H      -3.360815   -3.756042    0.135935
H      -0.354627   -2.584947   -0.736384
H      -1.250577   -2.600584    0.784567
