12

O      -0.011383   -0.020767    0.003894
C      -0.005956    1.187829    0.009974
C      -1.248322    2.097274    0.031530
C      -0.702569    3.538130    0.031256
C       0.796793    3.362145    0.010009
C       1.178062    2.080133   -0.001618
H      -1.871990    1.874717   -0.838897
H      -1.847863    1.865969    0.916513
H      -1.038399    4.118668   -0.836561
H      -1.014655    4.110037    0.913543
H       1.468957    4.214090    0.005164
H       2.190619    1.698113   -0.017306
