14

C      -0.032319    1.464304    0.015369
C       0.003304   -0.024931   -0.045532
N      -0.024321   -0.756480   -1.135309
C       0.027085   -2.045854   -0.696582
C       0.087016   -2.128913    0.670275
N       0.071087   -0.822891    1.075716
N       0.018210   -3.177172   -1.591822
O      -0.036622   -2.966084   -2.792172
O       0.067955   -4.286837   -1.060310
H       0.861957    1.870753    0.500636
H      -0.081430    1.851796   -1.002395
H      -0.906285    1.825645    0.568607
H       0.136760   -2.967312    1.341504
H       0.103682   -0.505147    2.031351
