20

C      -0.769645    1.313620   -0.042766
C       0.046888    0.022612   -0.078906
C       1.274904    0.049511   -1.006612
C       2.259469   -0.945667   -0.383534
O       3.280590   -1.374765   -0.872893
N       1.768018   -1.253792    0.860085
C       0.629465   -0.455712    1.283852
C       1.059844    0.648270    2.252459
O       1.659704   -0.009895    3.359898
H      -0.162829    2.172015    0.264257
H      -1.170583    1.536440   -1.036513
H      -1.618513    1.235840    0.645046
H      -0.607861   -0.785819   -0.424016
H       1.055965   -0.217529   -2.042320
H       1.756925    1.035080   -1.022793
H       2.357386   -1.712857    1.537768
H      -0.093650   -1.085741    1.815750
H       1.771676    1.327372    1.757971
H       0.185451    1.238174    2.564872
H       2.028897    0.654315    3.948575
