17

C       0.684423    0.900064    0.351843
O      -0.001240    0.124066   -0.622490
C       0.656633   -0.970959   -1.054352
N       0.127744   -1.718582   -1.917428
C       0.847591   -2.900725   -2.377838
C       2.172968   -3.172305   -1.809843
C       3.260786   -3.387655   -1.338044
C       4.577626   -3.671785   -0.784344
H       0.879871    0.321649    1.263183
H       1.633032    1.289525   -0.037730
H       0.028867    1.737140    0.595101
H       1.642548   -1.129270   -0.599200
H       0.196483   -3.767894   -2.202301
H       0.933057   -2.825465   -3.470433
H       4.997775   -4.585062   -1.219969
H       5.281671   -2.856799   -0.985396
H       4.534154   -3.814313    0.301059
