17

C      -0.026846    1.563374    0.020815
C       0.020516    0.025351   -0.034571
C       0.696850   -0.480682   -1.222759
C       1.261341   -0.870462   -2.215055
C       1.917077   -1.374564   -3.366764
N       2.434094   -0.559080   -4.298656
N       2.958583   -1.391658   -5.211286
C       2.800269   -2.703444   -4.905479
C       2.124997   -2.738545   -3.708685
H       0.982722    1.982688    0.023036
H      -0.556538    1.966590   -0.846305
H      -0.542109    1.895547    0.926993
H       0.523923   -0.358741    0.862567
H      -1.001494   -0.374686    0.001071
H       3.410267   -0.997564   -6.018985
H       3.171577   -3.485921   -5.547999
H       1.818771   -3.606467   -3.149444
