10

F       0.056581    0.072879    0.151226
C       0.002947    1.376198    0.037632
N      -1.171666    1.876244   -0.034880
O      -1.215330    3.273535   -0.156805
C      -0.057353    3.956967   -0.187090
N       1.129315    3.503168   -0.118324
C       1.277947    2.112964    0.005586
N       2.381562    1.488083    0.086902
H      -0.265555    5.019623   -0.284105
H       3.150497    2.162102    0.047683
