20

C       0.391799    0.881818   -0.448159
O      -0.291811   -0.123597    0.283618
C       0.481100   -0.643113    1.324628
C       0.018166   -1.951990    1.893217
C       1.274738   -1.897444    1.044623
N       1.242420   -2.414282   -0.287298
C       2.220406   -3.228213   -0.783503
C       2.037855   -3.638533   -2.237119
O       3.170540   -3.601127   -0.118259
H       1.313692    0.497578   -0.905126
H      -0.287179    1.223783   -1.232527
H       0.650529    1.734776    0.195735
H       0.900459    0.109376    1.993070
H       0.110466   -2.119394    2.960391
H      -0.863634   -2.386426    1.434203
H       2.238110   -2.054631    1.511981
H       0.495122   -2.092988   -0.881427
H       1.134097   -3.234185   -2.700596
H       2.910045   -3.308772   -2.808004
H       2.007584   -4.729936   -2.291479
