19

O      -0.009838    0.020151    0.084090
C      -0.031699    1.215032    0.006208
C      -1.125876    2.286092    0.081132
C      -0.025942    3.170411    0.758672
C       1.042038    2.319249   -0.009061
C       1.174185    2.880030   -1.423793
C       0.790722    2.036891   -2.614332
C      -0.146823    3.120717   -2.126207
C      -1.425436    2.804714   -1.347692
H      -2.041339    2.051802    0.627319
H      -0.046321    4.237051    0.525400
H       0.012444    3.020227    1.839639
H       2.004812    2.098199    0.454576
H       1.967165    3.610780   -1.551982
H       1.307181    2.212379   -3.551785
H       0.527974    0.997898   -2.443455
H      -0.209725    3.998446   -2.761039
H      -2.044701    2.073754   -1.881141
H      -2.024808    3.717732   -1.255064
