21

O      -0.058151    1.480740    0.086376
C       0.015036    0.067906   -0.036029
C      -1.409635   -0.500923    0.021772
C      -1.374629   -2.014876   -0.253160
C      -2.720042   -2.660182   -0.606196
C      -3.768263   -2.678281    0.469720
C      -3.885076   -1.879293    1.540334
C      -3.077145   -0.734225    1.954027
C      -2.057086   -0.127106    1.330869
H       0.835098    1.822523    0.182836
H       0.482713   -0.218960   -0.990726
H       0.618458   -0.371295    0.775109
H      -1.962101   -0.007982   -0.793150
H      -0.688756   -2.200366   -1.089286
H      -0.948280   -2.525530    0.618658
H      -3.134698   -2.181190   -1.506343
H      -2.528588   -3.698947   -0.907754
H      -4.524140   -3.452295    0.349751
H      -4.721043   -2.087505    2.205398
H      -3.389742   -0.297061    2.900437
H      -1.628200    0.752434    1.802883
