16

C      -0.120418    1.577100    0.044752
C      -0.073753    0.048463    0.015782
C       0.814666   -0.529124    1.135775
C       0.860679   -2.017901    1.137843
C       1.853003   -2.927895    0.929591
N       1.291235   -4.176168    1.045363
N       0.065507   -4.092445    1.300447
O      -0.266782   -2.691105    1.371377
H       0.878293    2.009212   -0.082596
H      -0.755439    1.964704   -0.757027
H      -0.522255    1.943907    0.995540
H      -1.083730   -0.362151    0.119514
H       0.304192   -0.298056   -0.953159
H       1.838377   -0.153297    1.036759
H       0.441539   -0.184252    2.108307
H       2.898010   -2.786566    0.713991
