19

C      -0.162872    1.664732   -0.512937
C       0.047278    0.220406   -0.094224
C       1.117071   -0.634796   -0.889941
C       1.844067   -0.736866    0.439745
C       2.799471   -1.136698    1.341206
C       2.375370   -0.586685    2.598966
C       1.193982    0.124664    2.423020
N       0.406667    0.904879    3.296201
N       0.913668    0.023451    1.087634
H       0.797014    2.171290   -0.650939
H      -0.720512    1.708187   -1.454325
H      -0.730269    2.209739    0.247490
H      -0.913456   -0.296441    0.011546
H       0.731446   -1.568204   -1.310610
H       1.627123   -0.076156   -1.680923
H       3.679395   -1.735906    1.167386
H       2.889967   -0.695979    3.543162
H       0.912784    1.087943    4.154308
H      -0.461311    0.440426    3.550237
