15

N      -0.053071    1.306501    0.007180
C       0.064372   -0.037948    0.000770
O       1.099053   -0.675139   -0.011000
C      -1.305284   -0.746319    0.010648
O      -2.340049   -0.115731    0.022989
C      -1.254023   -2.252475    0.004155
N      -2.589688   -2.788137    0.014779
C      -2.832395   -4.123314    0.006141
O      -1.971261   -4.976848   -0.009311
H       0.771689    1.882507    0.002181
H      -0.971164    1.720301    0.017447
H      -0.678353   -2.583173   -0.870813
H      -0.661488   -2.589823    0.865231
H      -3.346842   -2.120319    0.025504
H      -3.917034   -4.347981    0.015037
