16

C       0.004542    1.296706   -0.214701
O      -0.085948    0.023457    0.395338
C      -1.326644   -0.566610    0.253313
C      -1.641881   -1.384185   -1.059320
O      -0.623759   -2.380583   -0.619944
C      -1.380436   -2.071080    0.628188
C      -2.631897   -2.175720   -0.219217
N      -3.748894   -2.751449   -0.178811
O      -4.480880   -2.536889   -1.364283
H       0.997381    1.689248    0.012750
H      -0.113213    1.234786   -1.305734
H      -0.754340    1.988683    0.180634
H      -2.145139    0.066635    0.627816
H      -1.662822   -1.094851   -2.106510
H      -1.091085   -2.574694    1.547212
H      -5.283159   -3.043316   -1.196920
