20

C      -0.328838    1.556809    0.121910
C       0.049758    0.091215   -0.032153
C       0.659876   -0.524300   -1.321543
C       1.576999   -1.313885   -0.354880
C       2.477986   -0.242683    0.101731
C       2.645017    0.824732   -0.970526
C       1.584421    0.452952   -2.046650
O       2.150199   -0.253286   -3.143257
N       1.178895   -0.443609    0.815742
H       0.459767    2.248486   -0.180799
H      -1.223036    1.784562   -0.468815
H      -0.561170    1.758215    1.173059
H      -0.817768   -0.513020    0.254532
H      -0.010985   -1.057457   -1.994011
H       1.723723   -2.383812   -0.274827
H       3.315318   -0.471117    0.752465
H       2.528421    1.842146   -0.585764
H       3.649576    0.756504   -1.403153
H       1.036531    1.337975   -2.402071
H       2.776870    0.330070   -3.583135
