16

O      -0.120296    0.003737   -0.174814
C      -0.048676    1.185235   -0.026823
O      -1.132317    1.986308    0.184240
C      -0.689372    3.321875    0.380017
O       0.654846    3.388586   -0.041072
C       1.180039    2.080614   -0.032528
C       2.275334    1.731599    1.022880
N       3.094471    1.144208   -0.059972
C       2.254162    1.777262   -1.102518
H      -1.294853    3.996251   -0.232325
H      -0.792087    3.576023    1.445094
H       2.666150    2.655912    1.468127
H       2.004274    1.026391    1.815099
H       4.066556    1.428767   -0.062972
H       1.959322    1.104014   -1.912979
H       2.640172    2.715810   -1.520177
