17

C      -0.008071    1.456675   -0.012433
N       0.009953    0.009594    0.006020
C      -0.010610   -0.777645   -1.141470
N      -0.047344   -0.290640   -2.316647
C       0.021019   -2.202959   -0.593185
N       0.057945   -2.086120    0.866582
C       0.049423   -0.829695    1.122155
C       0.078520   -0.251085    2.498214
H       0.889745    1.875961    0.454507
H      -0.039276    1.761181   -1.059820
H      -0.890023    1.854384    0.501271
H      -0.056660   -1.032294   -3.014229
H      -0.861829   -2.768854   -0.914061
H       0.899196   -2.747597   -0.960314
H       0.107378   -1.065375    3.221821
H       0.957055    0.387709    2.640113
H      -0.806577    0.366336    2.686400
