15

C      -0.103953    1.304954   -0.071082
O      -0.418897   -0.007948   -0.553147
C       0.507682   -0.579300   -1.303036
N       1.659054   -0.030874   -1.614700
O       2.260227   -1.031573   -2.415085
C       1.391960   -2.039520   -2.472065
C       1.739850   -3.291115   -3.216664
O       0.610233   -4.096857   -3.424131
N       0.292621   -1.836492   -1.814173
H       0.795352    1.279386    0.551073
H       0.059254    1.991151   -0.907083
H      -0.966395    1.617179    0.516763
H       2.174849   -3.027309   -4.187956
H       2.526724   -3.816872   -2.648854
H      -0.023491   -3.890812   -2.724870
