16

C       0.159689    0.555181    0.943698
C       0.006761    0.075556   -0.483911
O       0.770612    0.370969   -1.368155
C      -1.220471   -0.822006   -0.765910
C      -1.054942   -2.180988   -0.177023
N      -1.360199   -2.587479    1.016990
C      -0.949769   -3.914537    1.050343
C      -0.410213   -4.239916   -0.146199
O      -0.467585   -3.133043   -0.946255
H       1.149567    0.988988    1.088661
H      -0.599415    1.321996    1.143087
H      -0.020142   -0.258733    1.651876
H      -2.110468   -0.368158   -0.320454
H      -1.339435   -0.892594   -1.848082
H      -1.079617   -4.528754    1.926884
H       0.020108   -5.125886   -0.579445
