20

C      -0.049494    1.517938    0.044169
C       0.034001    0.009035    0.047316
C       0.928294   -0.794847   -0.966663
C       0.735315   -1.922648    0.116375
O       1.499820   -3.083916    0.183141
C       0.785588   -0.779251    1.165214
C      -0.771950   -2.184676   -0.047340
N      -1.622270   -1.670600    1.054413
C      -1.279898   -0.800952   -0.099074
H       0.944463    1.973338    0.103395
H      -0.530321    1.887047   -0.869564
H      -0.635149    1.879718    0.896560
H       0.531815   -0.975051   -1.970778
H       1.955589   -0.419888   -1.020324
H       2.422505   -2.833113    0.292860
H       1.803118   -0.397188    1.289101
H       0.294772   -0.927497    2.124613
H      -1.112746   -2.995735   -0.679986
H      -2.566971   -2.025448    0.915088
H      -2.057097   -0.465607   -0.777654
