15

O       0.128456   -0.007902   -0.013200
C       0.013356    1.204460    0.000947
C      -1.171405    2.053316    0.034312
C      -0.757074    3.347119    0.034661
N       0.603712    3.490889   -0.093644
C       1.182428    2.172904   -0.032197
C       2.447828    1.852566    0.726451
C       2.439336    1.785719   -0.772423
H      -2.191210    1.702954    0.050042
H      -1.368927    4.238952    0.095558
H       1.065842    4.269855    0.350363
H       2.973382    2.673969    1.203098
H       2.435963    0.920222    1.281189
H       2.417631    0.805590   -1.236894
H       2.950653    2.565263   -1.325741
