25

C       0.113172    1.564327   -0.136160
C       0.083734    0.061377    0.056420
O       0.981630   -0.632456   -0.835206
C       1.384858   -1.562640    0.211171
C       0.697936   -2.912934   -0.007587
C       2.897618   -1.742826    0.220960
C       0.718700   -0.630856    1.299582
C       1.709933    0.246717    2.068901
C      -0.262774   -1.263054    2.285946
H       1.117617    1.972946   -0.003110
H      -0.219206    1.810049   -1.149998
H      -0.564824    2.058185    0.568565
H      -0.949283   -0.293076   -0.095082
H       1.089303   -3.375335   -0.919109
H       0.882467   -3.597057    0.827650
H      -0.382003   -2.802917   -0.129906
H       3.423123   -0.789713    0.291695
H       3.211026   -2.379127    1.055783
H       3.212224   -2.229706   -0.707973
H       2.410062    0.770499    1.415147
H       1.173908    1.003355    2.652262
H       2.296144   -0.354577    2.772273
H       0.256889   -1.898874    3.011994
H      -0.783089   -0.483000    2.853738
H      -1.023828   -1.870901    1.791206
