23

C       2.133593    1.658191   -1.263809
C       2.177627    0.127530   -1.254196
C       0.791630   -0.501570   -1.422240
C       0.774954   -2.050590   -1.415954
O       1.316883   -2.548397   -0.184382
C      -0.682044   -2.559300   -1.467426
C      -0.819502   -4.081990   -1.462480
C       1.550834   -2.569566   -2.554608
C       2.210376   -2.980565   -3.472876
H       1.730376    2.037041   -2.209521
H       1.499465    2.042616   -0.457215
H       3.132891    2.085041   -1.133506
H       2.838679   -0.227127   -2.053951
H       2.614500   -0.214201   -0.307552
H       0.139179   -0.172507   -0.604199
H       0.337935   -0.153053   -2.358253
H       2.276427   -2.507267   -0.243759
H      -1.189281   -2.136634   -0.592387
H      -1.161425   -2.132849   -2.355184
H      -1.874728   -4.370866   -1.450013
H      -0.357847   -4.524416   -2.350132
H      -0.335018   -4.507060   -0.580439
H       2.785933   -3.352045   -4.284823
