12

F       0.008828    0.021307    0.003312
C      -0.017818    1.356695    0.010617
C      -1.239218    2.012909    0.030729
C      -1.253475    3.406808    0.038166
C      -0.062084    4.112761    0.025542
F      -0.056986    5.445975    0.032401
C       1.153952    3.431103    0.005368
F       2.286628    4.129106   -0.006493
C       1.189048    2.046057   -0.002308
H      -2.157437    1.439598    0.040306
H      -2.185946    3.958146    0.053783
H       2.135115    1.520606   -0.017977
