21

O      -0.025043   -0.084069    0.032041
C       0.015456    1.118910    0.005871
C       1.281005    1.954571   -0.002528
C       1.328404    2.753448   -1.322625
C       2.644229    3.510812   -1.580778
C       2.870083    4.731560   -0.720367
C       2.858488    4.762835    0.611669
C       2.617192    3.583723    1.524365
C       1.305732    2.814584    1.279153
H      -0.925504    1.721187   -0.014980
H       2.120176    1.248078    0.021297
H       1.174541    2.049211   -2.149750
H       0.490827    3.461948   -1.353561
H       3.482370    2.808644   -1.458794
H       2.661325    3.810949   -2.633437
H       3.071107    5.658874   -1.251982
H       3.050613    5.714161    1.102593
H       3.457034    2.876937    1.450059
H       2.616111    3.932938    2.561915
H       0.468077    3.523463    1.262138
H       1.137109    2.149978    2.135682
