18

C      -0.997471    1.063490    0.346790
C      -0.124267   -0.121823   -0.048769
C       0.839366    0.037286   -1.269597
C       2.037673   -0.513981   -0.410353
C       3.269386    0.249306   -0.408073
C       4.273780    0.908688   -0.444965
C       1.098432   -0.420854    0.798692
N       1.211181   -0.490988    2.055732
O       2.527428   -0.771631    2.449196
H      -0.396586    1.971891    0.455311
H      -1.765823    1.249043   -0.411003
H      -1.496438    0.875626    1.301858
H      -0.745067   -1.020408   -0.154205
H       0.598467   -0.538240   -2.164218
H       0.994527    1.082452   -1.543302
H       2.248442   -1.565404   -0.642714
H       5.167386    1.481676   -0.459164
H       2.460660   -0.759056    3.410124
