13

C      -0.026999    1.532767   -0.084884
C      -0.021988    0.034742    0.092389
O      -0.036366   -0.544916    1.141558
N       0.002168   -0.704797   -1.129305
N       0.019104   -0.067433   -2.349845
N       0.039028   -0.941553   -3.263163
N       0.035785   -2.165242   -2.685865
C       0.012374   -2.110826   -1.297294
O       0.003852   -3.007263   -0.500598
H       0.858961    1.860939   -0.634864
H      -0.896686    1.851618   -0.665438
H      -0.046580    1.984644    0.905962
H       0.049738   -2.996997   -3.252582
