21

C      -0.053158    1.494092    0.101115
C       0.014181   -0.016649    0.051734
C       1.363907   -0.715038   -0.113076
C       0.624842   -0.779274    1.182575
O       1.136490   -0.120737    2.357040
C       0.803046   -1.280156    3.147740
C       1.770526   -1.679316    4.211844
C      -0.679442   -1.500958    3.130920
C       0.170643   -1.982772    1.963702
H       0.772615    1.899995    0.691639
H      -0.002313    1.926743   -0.903991
H      -0.985549    1.831908    0.566165
H      -0.826952   -0.501295   -0.439182
H       1.423564   -1.608766   -0.726461
H       2.247953   -0.085379   -0.137699
H       1.827942   -0.906186    4.986664
H       1.452337   -2.610913    4.688497
H       2.773532   -1.820508    3.797650
H      -1.041168   -2.290945    3.782522
H      -1.353626   -0.658091    3.007153
H       0.222283   -3.013754    1.639596
