14

O       0.052935    1.349404    0.233387
C       0.061460    0.012481    0.000342
C       0.059594   -0.758837   -1.122342
C       0.072373   -2.142547   -0.678054
C       0.076023   -3.333606   -1.428774
C       0.079586   -4.381660   -2.029203
C       0.080963   -2.107461    0.700624
O       0.093808   -3.087627    1.625585
N       0.074568   -0.805514    1.113878
H       0.050801    1.803420   -0.614692
H       0.050328   -0.420448   -2.145565
H       0.082526   -5.292667   -2.573456
H       0.096472   -3.926936    1.147057
H       0.078412   -0.491429    2.069004
