23

C      -0.058951    1.530655    0.023703
C       0.044757    0.003616   -0.001689
C       0.901150   -0.565582   -1.157156
C       2.353365   -0.249053   -0.707099
C       2.298777   -0.277496    0.849749
C       0.823156   -0.593945    1.187298
O       0.565387   -1.997971    1.264240
C       1.026345   -2.734010    0.139303
C       0.650705   -2.086779   -1.202915
H       0.920977    2.016948    0.051870
H      -0.580936    1.897408   -0.866590
H      -0.620566    1.869857    0.900962
H      -0.965882   -0.418626   -0.016769
H       0.663538   -0.115759   -2.126417
H       3.068100   -0.971904   -1.112345
H       2.662766    0.734509   -1.070885
H       2.965294   -1.021644    1.293014
H       2.577428    0.690404    1.275282
H       0.514380   -0.198621    2.158804
H       2.119201   -2.861498    0.191869
H       0.584947   -3.730655    0.233205
H      -0.407475   -2.269683   -1.423313
H       1.235967   -2.559507   -2.001048
