20

C       0.033076    1.531177    0.080304
C      -0.042550   -0.005064   -0.019117
C      -1.499479   -0.499333   -0.018524
O      -2.084461   -0.106174    1.212301
C       0.660335   -0.506864   -1.198102
C       1.229083   -0.907735   -2.183712
C       1.889804   -1.397757   -3.360852
C       3.265429   -1.972848   -3.261674
N       2.125963   -2.854443   -3.532615
H       1.071193    1.864074    0.155684
H      -0.408241    1.994480   -0.807922
H      -0.516622    1.869578    0.960767
H       0.429291   -0.429636    0.877865
H      -2.028915   -0.061607   -0.878961
H      -1.511346   -1.592362   -0.139210
H      -3.012884   -0.354792    1.199326
H       1.614845   -0.904072   -4.289637
H       3.953742   -1.843868   -4.092213
H       3.726275   -1.992001   -2.278675
H       1.852226   -3.328611   -2.675056
