18

N      -0.015306    1.250117   -0.284241
C       0.068601   -0.057434    0.098790
O       1.094327   -0.539788    0.538095
C      -1.231577   -0.855298    0.013634
C      -2.121076   -0.679180   -1.265089
C      -2.081033   -2.153627   -1.726403
C      -2.355228   -2.960398   -0.438690
C      -0.959845   -2.368959   -0.145694
O      -0.664889   -2.470897   -1.575949
H       0.823191    1.806740   -0.254326
H      -0.836890    1.635578   -0.713767
H      -1.795969   -0.643989    0.929327
H      -3.130677   -0.318010   -1.051560
H      -1.663485   -0.032264   -2.017324
H      -2.497152   -2.407069   -2.701386
H      -3.202102   -2.689477    0.198053
H      -2.311407   -4.035084   -0.615554
H      -0.212410   -2.818112    0.502466
