19

C      -0.115037    1.540191    0.021772
C       0.051367    0.027604   -0.000602
C       1.152851   -0.571802   -0.921419
O       0.831026   -1.885702   -1.445954
C       1.697080   -2.547542   -0.486237
C       1.868002   -1.246640    0.275651
C       2.888122   -0.540993    1.147274
O       1.825691    0.208812    1.795058
C       0.793348   -0.623636    1.204037
H       0.826579    2.032528    0.278563
H      -0.446932    1.907831   -0.954770
H      -0.858780    1.842321    0.766386
H      -0.902179   -0.473678   -0.196527
H       1.638074    0.067863   -1.666674
H       1.197262   -3.376266    0.029051
H       2.611445   -2.922270   -0.967483
H       3.410385   -1.188206    1.865872
H       3.618135    0.109059    0.650931
H       0.221812   -1.164506    1.965149
