16

C      -0.343743    1.329066    0.089548
C       0.180854   -0.106384   -0.047300
N       0.812082   -0.563154    1.186348
C       0.102741   -1.090174    2.095321
O      -1.263272   -1.253987    1.980699
N      -2.053268   -1.946124    3.020239
N      -1.481186   -2.332646    4.028748
C      -0.104325   -2.155247    4.251355
C       0.677249   -1.566146    3.339581
H       0.457131    2.003103    0.406979
H      -0.734647    1.683282   -0.869316
H      -1.149513    1.378379    0.827378
H      -0.639659   -0.767982   -0.353172
H       0.945497   -0.138610   -0.830163
H       0.242023   -2.541126    5.200176
H       1.742262   -1.427410    3.476358
