14

O       0.002166    0.019977    0.064072
C      -0.014484    1.210435    0.012524
C      -1.098022    2.328946    0.060884
C      -0.029235    3.143154    0.849864
C       1.039584    2.357609    0.032383
O       1.126495    2.848293   -1.312390
C      -0.068128    3.482461   -1.725920
O      -1.233871    2.816643   -1.280919
H      -2.095072    2.149612    0.462546
H      -0.044726    4.230681    0.781746
H      -0.011179    2.840505    1.899746
H       2.051436    2.205211    0.407261
H      -0.077435    4.524806   -1.375698
H      -0.082453    3.465008   -2.817895
