15

N       0.199570    1.181890   -0.637632
C       0.106980    0.020322   -0.140669
N      -1.124107   -0.644395   -0.036239
C      -1.127960   -2.030834    0.187883
N      -0.051421   -2.702655    0.211334
C      -2.369949    0.002741   -0.203471
N      -3.361754   -0.684490   -0.626972
C      -2.480163    1.373677    0.205101
C      -2.747071    2.486590    0.574745
H       1.166625    1.499916   -0.598610
H       0.917861   -0.606542    0.229612
H      -2.139142   -2.407974    0.334390
H      -0.252483   -3.674464    0.436862
H      -4.207501   -0.117021   -0.613628
H      -2.937246    3.483162    0.890139
