20

C      -0.019468    1.546283    0.008502
C      -0.043392    0.041590   -0.004031
C       0.791236   -0.962435   -0.876858
C       1.946070   -1.050852    0.124114
C       0.665645   -0.975710    0.959742
N      -0.082056   -1.924700   -0.020890
C      -1.203717   -0.926805   -0.090380
C      -2.522916   -1.053197    0.584878
C      -2.418591   -1.042163   -0.940679
H       1.005213    1.926703    0.080939
H      -0.463659    1.954079   -0.906285
H      -0.583808    1.941275    0.860523
H       0.794153   -1.048877   -1.964905
H       2.484385   -2.001660    0.154051
H       2.627793   -0.198512    0.176893
H       0.520511   -1.077797    2.036700
H      -2.758211   -1.999653    1.060862
H      -2.950061   -0.183075    1.073773
H      -2.776066   -0.164673   -1.470592
H      -2.585967   -1.981436   -1.457838
