17

O       0.677270    0.988092   -1.434739
C       0.336107    1.456267   -0.366049
N       1.093562    1.464445    0.758968
C       2.486758    1.004538    0.750069
C       3.477032    2.042072    0.302656
C       3.703249    2.428640   -1.002167
N       4.658170    3.409649   -0.989340
C       5.056862    3.660847    0.299358
C       4.338990    2.827235    1.124363
H      -0.660747    1.912204   -0.200134
H       0.773478    2.017362    1.538535
H       2.727592    0.659163    1.759602
H       2.512520    0.138217    0.085090
H       3.241698    2.089732   -1.915265
H       5.019792    3.870583   -1.805723
H       5.814419    4.396931    0.514449
H       4.424953    2.773779    2.199821
