17

O      -0.102074   -0.042063   -0.010977
C      -0.023928    1.156879    0.015719
C       1.281111    1.943616    0.011546
C       1.376220    2.771731   -1.286535
C       2.509682    3.802476   -1.216788
C       2.388876    4.709894    0.000270
O       2.764210    5.863875   -0.006323
C       1.828827    4.080463    1.218843
C       1.357236    2.827831    1.233769
H      -0.936614    1.797462    0.032087
H       2.088003    1.199098    0.051744
H       1.513792    2.104391   -2.142556
H       0.423405    3.295520   -1.441026
H       3.477228    3.286253   -1.140770
H       2.549601    4.426953   -2.112555
H       1.853119    4.690201    2.116858
H       1.007939    2.397150    2.170444
