16

O      -0.044610    1.478640    0.059844
C      -0.018617    0.090386    0.033648
C       0.850032   -0.676931    1.080334
C       0.630421   -1.985697    0.885768
C      -0.361537   -1.930479   -0.268015
C      -1.324884   -2.433752   -1.354908
N      -1.430679   -0.910573   -1.563435
C      -1.317970   -0.728603   -0.028744
C       0.078923   -0.799233   -1.236060
H       0.853284    1.807278   -0.055546
H       1.482794   -0.195443    1.814255
H       1.041633   -2.838226    1.407175
H      -0.902154   -2.961071   -2.215486
H      -2.264916   -2.894864   -1.036856
H      -2.201539   -0.692505    0.612060
H       0.840185   -0.851069   -2.018625
