22

C      -0.097970    1.493637    0.216723
C       0.130063   -0.015815    0.101990
C       0.554326   -0.657180    1.429627
C       0.766106   -2.151343    1.321483
C       2.100274   -2.722397    0.898871
C       1.612484   -2.915698    2.311425
N       2.297982   -2.225118    3.366185
C       1.672282   -1.814954    4.505339
O       0.479634   -1.876615    4.707783
H       0.813993    2.008310    0.539905
H      -0.402434    1.926563   -0.741318
H      -0.880250    1.720779    0.949368
H      -0.788652   -0.499192   -0.255741
H       0.894554   -0.218786   -0.659226
H       1.475999   -0.181308    1.786066
H      -0.204906   -0.462364    2.197077
H      -0.108060   -2.699903    0.979255
H       2.137168   -3.586760    0.245613
H       2.911952   -2.015567    0.752018
H       1.254525   -3.904667    2.587206
H       3.306466   -2.224220    3.361895
H       2.392801   -1.398397    5.239166
