19

C       0.105391    1.483553   -0.067273
C       0.048509    0.029891   -0.012054
C       0.001687   -1.172201    0.026182
C      -0.072215   -2.625592    0.083873
C      -1.523767   -3.165927    0.058142
O      -2.211030   -2.781645   -1.111692
C      -1.517803   -4.681811    0.196340
C      -2.608415   -5.501742   -0.335706
O      -1.364402   -5.381622   -1.046909
H       0.920018    1.826105   -0.715177
H      -0.827507    1.901801   -0.461356
H       0.268941    1.916957    0.925772
H       0.474215   -3.071221   -0.758821
H       0.421591   -2.990016    0.995397
H      -2.074185   -2.729192    0.899812
H      -1.879045   -3.359018   -1.813527
H      -0.916708   -5.083520    1.012983
H      -2.799949   -6.484733    0.089835
H      -3.454267   -5.008612   -0.807283
