15

N      -0.197118    1.155491   -0.705385
C      -0.107284    0.016147   -0.130007
N      -1.193943   -0.665739    0.347774
C      -2.494044   -0.063968    0.367271
C      -3.350758   -0.148449   -0.867545
C      -3.682818   -0.983617    0.344234
C       1.154119   -0.687441    0.061141
N       2.175811   -1.210492    0.202213
H       0.713698    1.475369   -1.025101
H      -1.012742   -1.419783    0.991427
H      -2.563429    0.851400    0.950112
H      -3.974986    0.705249   -1.102638
H      -2.927187   -0.655631   -1.725687
H      -3.490538   -2.049571    0.284575
H      -4.540261   -0.714856    0.950087
