19

O      -0.022125    1.400362   -0.023039
C      -0.042152   -0.015549   -0.037413
C      -1.447726   -0.489692    0.016910
C      -2.617955    0.151470    0.024895
C      -3.641928   -0.994843    0.055451
C      -3.017421   -1.969665   -1.004816
C      -1.869737   -1.978827    0.047525
O      -0.889251   -2.969370   -0.021514
C      -3.001215   -1.932112    1.135759
H       0.889734    1.685995   -0.128649
H       0.442957   -0.421554   -0.942357
H       0.525168   -0.432327    0.816505
H      -2.821015    1.211599    0.004902
H      -4.702677   -0.754690    0.061237
H      -3.533880   -2.931838   -1.076509
H      -2.791138   -1.563756   -1.992808
H      -0.396832   -2.968916    0.806270
H      -2.758212   -1.489035    2.104878
H      -3.518188   -2.890093    1.250553
