19

C      -0.160901    0.774342    2.025565
C       0.202604   -0.113927    0.840716
C       0.207703    0.479747   -0.606091
C       1.636907   -0.063141   -0.858390
C       2.722739    0.915467   -1.285555
C       4.113715    0.327966   -1.377705
O       2.480241    2.083581   -1.481294
C       1.686715   -0.454569    0.647595
O       2.572825   -0.794553    1.376174
H       0.394648    1.716912    1.994573
H      -1.229255    1.011271    2.020481
H       0.074961    0.273982    2.969314
H      -0.367271   -1.051400    0.882920
H      -0.568290    0.108947   -1.275923
H       0.205883    1.571601   -0.619962
H       1.688872   -0.965175   -1.478548
H       4.150374   -0.436870   -2.162031
H       4.840439    1.111585   -1.594676
H       4.356248   -0.171588   -0.432389
