21

C      -0.104700    1.570913   -0.005260
C       0.017655    0.039304    0.024914
C       0.764937   -0.505623   -1.211816
C       2.258658   -0.329986   -1.107069
C       2.897099   -0.126737    0.044402
C       2.196842   -0.044970    1.376574
C       0.735043   -0.444814    1.275376
C      -0.020058   -0.783554    2.486242
O       0.457911   -1.815317    1.617626
H       0.874851    2.050274   -0.095278
H      -0.707720    1.888878   -0.861705
H      -0.586502    1.949078    0.902407
H      -0.989517   -0.391648    0.041083
H       0.534122   -1.573004   -1.333582
H       0.391075   -0.013075   -2.118204
H       2.827317   -0.392078   -2.031820
H       3.977753   -0.008004    0.053969
H       2.684617   -0.700462    2.107604
H       2.280229    0.975568    1.779505
H       0.465916   -0.732076    3.460687
H      -1.101851   -0.651518    2.505933
