21

C       0.299952    1.023529    0.466633
N      -0.257713    0.248105   -0.648689
C      -1.290011   -0.651137   -0.312906
C      -1.299450   -1.975603    0.076855
C      -0.102819   -2.855623    0.276430
C      -2.671967   -2.338350    0.247107
C      -3.454623   -1.239728   -0.025028
C      -4.935937   -1.058103    0.007034
N      -2.599468   -0.218326   -0.366035
H       1.072150    1.698492    0.084502
H      -0.490262    1.635241    0.911797
H       0.735142    0.404579    1.266244
H       0.482236   -0.232842   -1.144514
H      -0.066815   -3.271964    1.290229
H      -0.095320   -3.706184   -0.416558
H       0.828600   -2.300970    0.120927
H      -3.043952   -3.306689    0.550747
H      -5.246230   -0.292896    0.730349
H      -5.342089   -0.763888   -0.969548
H      -5.417554   -1.996122    0.293290
H      -2.865261    0.693694   -0.696148
