19

C      -0.084371    1.419593   -0.111646
C      -0.011159   -0.069785    0.103320
O       1.300510   -0.668472    0.046617
C       0.610603   -0.681156    1.281176
C       1.247287   -0.087354    2.556442
C       0.944329   -1.412972    3.277006
C      -0.540762   -1.689047    3.225687
C       0.309462   -1.983229    2.013637
O       0.460841   -3.244448    1.481183
H       0.679652    1.937088    0.474150
H       0.069125    1.665422   -1.167793
H      -1.068438    1.801376    0.181986
H      -0.771941   -0.652470   -0.422017
H       2.314600    0.086714    2.401161
H       0.786824    0.811104    2.980007
H       1.592129   -1.903243    3.991619
H      -0.855105   -2.579505    3.761474
H      -1.260449   -0.872850    3.235555
H      -0.380688   -3.523073    1.103917
