17

O       0.012101   -0.141440    0.130392
C      -0.025041    1.070873   -0.031007
N      -1.218214    1.739268    0.019859
C      -1.498445    3.137631   -0.248854
C      -0.667092    4.097297    0.609725
C       0.747104    4.320100    0.071595
C       1.566927    3.104125   -0.246110
C       1.243369    1.807518   -0.295123
H      -1.999004    1.118160    0.167829
H      -1.356295    3.375828   -1.314004
H      -2.560758    3.284040   -0.035583
H      -1.174600    5.067222    0.657402
H      -0.630655    3.703304    1.631152
H       0.697658    4.930926   -0.843309
H       1.313907    4.936277    0.782910
H       2.605125    3.339954   -0.479331
H       2.029754    1.096271   -0.529223
