17

O      -0.624520    0.681426    0.677796
C       0.119197    0.951987   -0.227899
C       1.279063    1.922801   -0.138275
C       1.245114    2.968818   -1.219869
N       0.248241    4.088573   -1.299523
C       1.132087    4.306535   -2.490536
C       2.407982    3.893441   -1.693113
N       2.897065    2.875271   -2.677081
C       1.404149    2.788903   -2.775332
H      -0.001005    0.478624   -1.230680
H       1.287083    2.382238    0.853979
H       2.206538    1.348138   -0.275796
H      -0.666832    3.735237   -1.593501
H       1.001327    5.129679   -3.194795
H       3.059511    4.514531   -1.078731
H       3.283643    3.337603   -3.503852
H       0.881158    2.106376   -3.448806
