15

C       0.121691    1.443616    0.248365
C      -0.089986   -0.027467   -0.014063
C       0.579425   -0.731400   -1.190166
C       1.444872   -0.011308   -2.082875
C       2.138155    0.582352   -2.864674
N       0.967013   -0.991477    0.186795
C       2.208196   -0.807040    0.768291
O       3.260010   -1.135462    0.281189
H       1.097125    1.775719   -0.115119
H      -0.650970    2.027765   -0.261209
H       0.052106    1.661145    1.318883
H      -1.077729   -0.403477    0.251207
H       0.031855   -1.549644   -1.653890
H       2.771586    1.095420   -3.545729
H       2.112019   -0.390111    1.790295
