17

C      -0.045540    1.539456    0.048116
C      -0.000764    0.001335    0.052211
C       0.751448   -0.524722    1.246169
N       2.057861   -0.759127    1.099447
C       2.704742   -1.193936    2.189638
C       2.090164   -1.400070    3.410432
C       0.722147   -1.118456    3.443654
O       0.036825   -1.287720    4.584762
N       0.054061   -0.685804    2.381260
H       0.965590    1.956116    0.012271
H      -0.597225    1.906518   -0.822166
H      -0.538928    1.915786    0.949431
H      -1.019603   -0.396281    0.075554
H       0.496112   -0.357401   -0.852797
H       3.768623   -1.387551    2.071458
H       2.617278   -1.755518    4.285535
H      -0.878598   -1.040627    4.387540
