19

C       0.008968    1.553891   -0.033401
C      -0.081662    0.030753   -0.016393
C      -1.483631   -0.438337   -0.397251
C       1.174872   -0.720039   -0.586860
O       1.963337   -0.212343    0.565064
C       0.683225   -0.671235    1.162655
C       0.833706   -1.930617    0.295561
C       0.275550   -3.269790    0.176106
O       1.650487   -3.029652    0.555768
H       1.007998    1.893498    0.238018
H      -0.236454    1.938843   -1.029584
H      -0.713704    1.986193    0.667783
H      -1.744850   -0.071494   -1.396094
H      -1.595480   -1.523211   -0.398903
H      -2.221098   -0.024966    0.299719
H       1.634626   -0.671318   -1.574417
H       0.562386   -0.564871    2.241128
H      -0.359229   -3.671350    0.964780
H       0.138296   -3.720796   -0.805707
