12

O       0.202928   -0.183760   -0.179261
C       0.087352    0.996719   -0.188539
O      -1.181994    1.556286   -0.358704
C      -1.446577    2.831868   -0.712393
C      -0.646539    3.724747   -1.324323
C       0.741667    3.505060   -1.677180
N       1.577039    2.736528   -1.077706
C       1.202384    2.027175    0.052794
O       1.721265    2.116727    1.133741
H      -2.484068    3.063828   -0.498263
H      -1.109679    4.653436   -1.638421
H       1.119809    4.058590   -2.538396
