15

N      -0.079988    1.426863   -0.180946
C      -0.019759    0.031744   -0.061121
C      -1.084723   -0.852271    0.010142
C      -2.565858   -0.619843   -0.044862
C      -2.944041    0.249104   -1.164463
N      -3.199750    0.965102   -2.034928
N      -0.533249   -2.089506    0.193675
N       0.802068   -2.070186    0.254866
C       1.123513   -0.786829    0.099432
H       0.808630    1.825558   -0.453990
H      -0.795398    1.742195   -0.826427
H      -3.101747   -1.570412   -0.147210
H      -2.934972   -0.152617    0.878615
H      -1.014308   -2.969811    0.268662
H       2.160879   -0.484584    0.107596
