20

N      -0.129427   -1.143638   -0.104147
C      -0.090307    0.010360   -0.153554
C      -0.015618    1.468217   -0.206426
C       1.383771    2.004330    0.193417
C       1.459945    3.501008    0.124825
C       1.616853    4.334097    1.156090
C       1.716272    5.778229    0.732288
C       1.264552    5.737139   -0.750834
C       1.433609    4.261545   -1.189763
H      -0.274243    1.791790   -1.220294
H      -0.776550    1.884708    0.462465
H       1.615895    1.659638    1.205407
H       2.127314    1.553727   -0.475994
H       1.714689    4.019421    2.190405
H       1.097219    6.447243    1.340562
H       2.749205    6.140229    0.836927
H       0.207923    6.015163   -0.815133
H       1.819483    6.433246   -1.384278
H       2.375411    4.098438   -1.734153
H       0.635300    3.936532   -1.867525
