23

C      -0.187608    1.549068   -0.015691
C      -0.031399    0.023869   -0.023255
C      -1.365578   -0.632204   -0.373937
C       1.195694   -0.391128   -0.905983
C       2.006544   -0.524109    0.387407
O       3.178009   -0.524938    0.640934
C       0.741376   -0.524321    1.265368
C       0.793077    0.328550    2.531379
C       0.383985   -1.976639    1.631730
H       0.762848    2.060591    0.167733
H      -0.559905    1.892049   -0.987305
H      -0.898867    1.878558    0.748881
H      -1.730740   -0.258409   -1.337157
H      -1.290048   -1.719655   -0.451216
H      -2.131151   -0.401651    0.376025
H       1.065756   -1.359329   -1.401417
H       1.564588    0.328950   -1.641046
H       1.077124    1.363300    2.329121
H      -0.177168    0.334363    3.041135
H       1.532616   -0.084354    3.224478
H       1.096316   -2.355052    2.371252
H      -0.619303   -2.031483    2.067187
H       0.414654   -2.651010    0.771138
