16

O       0.619449    1.572306   -0.186393
C       0.187216    0.224273    0.001899
C       0.401093   -0.586660   -1.205935
C       0.591569   -1.235366   -2.199812
C       0.821840   -0.399840    1.223218
C       1.280926    0.308311    2.313144
N       1.752213   -0.595764    3.229102
C       1.602981   -1.871031    2.745774
C       1.028232   -1.782359    1.500555
H       1.574521    1.539426   -0.318110
H      -0.896364    0.319829    0.154839
H       0.752775   -1.804808   -3.081658
H       1.299791    1.368885    2.499880
H       2.160868   -0.357082    4.115365
H       1.924313   -2.725145    3.319756
H       0.788437   -2.605640    0.846314
