19

O       0.005939    1.412398   -0.216863
C       0.051585    0.011058    0.002512
C      -1.383395   -0.491397    0.047071
C      -2.173004   -0.246875   -1.260684
N      -3.238401   -1.256573   -1.303865
C      -2.604474   -2.471654   -0.759530
C      -1.499357   -2.020201    0.263282
C      -3.589380   -3.383223   -0.180468
N      -4.361754   -4.095596    0.300536
H       0.906987    1.747166   -0.243408
H       0.591974   -0.504563   -0.810132
H       0.567911   -0.231199    0.944767
H      -1.896362    0.031387    0.862183
H      -2.591832    0.757162   -1.334937
H      -1.513715   -0.394942   -2.127187
H      -3.991112   -0.974541   -0.681823
H      -2.120016   -2.997459   -1.591908
H      -0.558611   -2.537265    0.049994
H      -1.782125   -2.267507    1.288012
