19

C      -0.083667    1.574282    0.082203
C       0.027857    0.061467   -0.019326
C       1.124099   -0.560595   -0.960565
C       1.726001   -1.299253    0.245459
C       2.348121   -2.659768    0.259414
N       2.119968   -0.242080    1.192788
C       0.692914   -0.685200    1.155887
C       0.066844   -1.236625    2.309317
N      -0.454433   -1.691789    3.238559
H       0.881352    2.012037    0.349550
H      -0.404598    2.001220   -0.873722
H      -0.817477    1.864843    0.841312
H      -0.944905   -0.389202   -0.233093
H       0.701834   -1.232388   -1.710597
H       1.802533    0.148896   -1.439889
H       3.350570   -2.630995   -0.182825
H       2.437427   -3.042153    1.281541
H       1.747707   -3.370576   -0.316634
H       2.554249   -0.691234    2.000072
