20

C      -0.290950    1.462078   -0.039420
C       0.067258    0.002264    0.020234
C       1.235222   -0.565857   -0.815963
N       1.733721   -1.319850    0.376531
C       0.624743   -0.814012    1.231745
C       1.129676   -0.292475    2.562947
O       1.961928   -1.258603    3.180809
C      -0.686595   -1.608097    1.122759
O      -1.089292   -0.868102   -0.053947
H       0.597134    2.090087    0.080856
H      -0.741436    1.693680   -1.011404
H      -1.016185    1.722414    0.736749
H       0.901986   -1.177096   -1.660131
H       1.967227    0.170011   -1.168340
H       1.722341   -2.327518    0.254334
H       1.670141    0.654560    2.402875
H       0.303462   -0.092515    3.252840
H       2.640885   -1.456916    2.521453
H      -0.593790   -2.685371    0.934021
H      -1.389904   -1.450909    1.951985
