19

C       0.217860    1.546595   -0.056829
C       0.021862    0.034408    0.040870
C       0.666689   -0.763266   -1.128663
O       1.543240   -1.706817   -0.475946
C       1.453097   -1.434966    0.861566
N       0.668035   -0.513974    1.246070
C       2.309511   -2.259884    1.731441
C       2.527920   -3.698027    1.394839
N       3.616808   -2.734261    1.234313
H       1.283213    1.793788   -0.110450
H      -0.275890    1.947170   -0.948747
H      -0.202027    2.040905    0.822791
H      -1.053129   -0.176414    0.102869
H      -0.052569   -1.323696   -1.731238
H       1.271607   -0.134037   -1.790433
H       2.294219   -1.945879    2.768654
H       2.654594   -4.408779    2.206097
H       2.037117   -4.083937    0.506901
H       3.697558   -2.484398    0.250925
