18

C       0.014400    1.447039    0.056625
C      -0.008661   -0.054189   -0.026923
O       0.978991   -0.750633   -0.111309
C      -1.414156   -0.696893    0.000971
O      -2.427301   -0.021261    0.084783
N      -1.353893   -2.043285   -0.077155
C      -2.509613   -2.882690   -0.073249
C      -2.537042   -4.142767   -0.896624
C      -2.474970   -4.222034    0.613668
H       1.042660    1.807603    0.030436
H      -0.566483    1.870925   -0.768606
H      -0.487819    1.772875    0.972977
H      -0.423274   -2.434023   -0.142427
H      -3.410521   -2.286206   -0.004580
H      -3.460999   -4.405045   -1.399692
H      -1.639701   -4.401223   -1.449283
H      -1.536501   -4.532822    1.060993
H      -3.355847   -4.539350    1.160417
