25

C       0.033003    1.559414   -0.033537
C       0.004537    0.021019    0.048407
C       0.774353   -0.471371    1.288301
C      -1.404270   -0.513461    0.017695
C      -1.934569   -1.292383   -0.928985
C      -3.360711   -1.684429   -0.632973
C      -3.764933   -0.704510    0.500909
C      -4.777033   -1.263522    1.498865
C      -2.415244   -0.264709    1.125246
H       1.064792    1.924492   -0.073926
H      -0.490616    1.916773   -0.925289
H      -0.443358    2.014219    0.841702
H       0.518235   -0.367583   -0.840668
H       0.318689   -0.098597    2.212196
H       0.788030   -1.564528    1.337651
H       1.810736   -0.118340    1.265151
H      -1.397150   -1.646962   -1.803358
H      -4.023318   -1.610470   -1.503489
H      -3.417196   -2.730879   -0.294385
H      -4.201338    0.180505    0.020574
H      -4.379918   -2.151948    2.003942
H      -5.027432   -0.526976    2.270213
H      -5.709425   -1.553012    1.001947
H      -2.172034   -0.874697    2.008764
H      -2.439881    0.774760    1.472179
