9

O      -0.012846   -0.036459    0.003230
C      -0.040201    1.166071    0.006672
C       1.188854    1.971821    0.000627
N       2.176444    2.571864   -0.004352
C      -1.302658    1.941088    0.016957
N      -1.378819    3.245096    0.021038
O      -2.675914    3.521554    0.030030
N      -3.402728    2.284247    0.031581
N      -2.561809    1.365448    0.023814
