14

O       0.021924    0.095770   -0.492726
C       0.211165    1.279724   -0.476730
C       1.465302    1.950084    0.062546
C       1.209505    2.580814    1.473427
N       1.962549    1.715217    2.386115
C       2.615306    0.906340    1.650656
O       2.492601    0.979205    0.306253
C       3.548177   -0.113031    2.217730
O       4.221557   -0.851028    1.550250
H      -0.554631    2.009783   -0.828706
H       1.831246    2.677966   -0.668274
H       1.580272    3.608311    1.548319
H       0.149506    2.594657    1.747740
H       3.554830   -0.103645    3.324195
