21

C      -0.090810    1.617016   -0.049874
C      -0.217242    0.099570   -0.207596
C       0.919492   -0.502797   -1.041581
C       0.832433   -2.020698   -1.178412
C      -0.142619   -2.603039   -2.209155
C       1.336735   -2.677942   -2.453146
O       1.931670   -1.843611   -3.400563
C       1.016773   -2.766059    0.039419
C       1.177553   -3.378774    1.062726
H       0.846039    1.886149    0.450621
H      -0.099762    2.120692   -1.023173
H      -0.914242    2.025779    0.544098
H      -0.230639   -0.376493    0.779959
H      -1.178653   -0.144903   -0.677413
H       0.929323   -0.065645   -2.044304
H       1.883984   -0.249269   -0.584308
H      -0.681378   -3.508520   -1.956257
H      -0.699700   -1.876025   -2.791292
H       1.818753   -3.646509   -2.328574
H       1.641787   -2.130965   -4.272713
H       1.319806   -3.919881    1.964909
