17

C       0.029600    1.612089   -0.009613
C       0.098742    0.090351    0.026540
C       0.758952   -0.713672   -1.093772
C       1.228814   -1.764982   -0.165316
N       2.237284   -0.887129   -0.819189
C       2.482035   -0.196080    0.491076
C       1.094788   -0.670356    0.964042
O       0.790183   -0.941997    2.287240
H       0.992928    2.067695   -0.252663
H      -0.689334    1.944642   -0.766078
H      -0.304838    2.019111    0.952665
H      -0.897485   -0.331513    0.204266
H       0.461792   -0.797371   -2.131466
H       1.234745   -2.846140   -0.186852
H       3.289970   -0.720286    1.007601
H       2.706751    0.874922    0.434857
H       0.451674   -0.140141    2.700118
