19

C       0.195444    1.313763    0.215865
O      -0.286656    0.042516   -0.186614
C       0.506597   -0.557941   -1.171870
C       1.890219   -1.188951   -0.798213
O       2.940698   -0.713267   -0.462920
C       1.438932   -2.549366   -1.211993
C       0.150776   -2.872888   -0.454770
C       0.050481   -1.951659   -1.616895
C      -0.761784   -2.225659   -2.848959
H       1.209426    1.251516    0.629188
H       0.205806    2.021389   -0.627634
H      -0.488069    1.685393    0.982432
H       0.655070    0.118836   -2.031959
H       2.030407   -3.325290   -1.682215
H      -0.206833   -3.884209   -0.622852
H       0.006438   -2.507652    0.556087
H      -1.794216   -1.884015   -2.714341
H      -0.350285   -1.710007   -3.723248
H      -0.794147   -3.297001   -3.070576
