17

C       0.008772    1.492106   -0.053485
C       1.274690    0.711857   -0.019466
C       1.904786    0.450817    1.337471
C       2.158623   -1.041777    1.600475
C       0.806897   -1.680176    1.580956
C      -0.166058   -0.533315    1.316155
C       0.737656    0.228110    2.331068
N       1.342961   -1.091229    2.858048
N      -0.038265    0.020352   -0.039222
H      -0.293353    2.034276    0.840154
H      -0.318142    1.944570   -0.984315
H       1.884760    0.616321   -0.913243
H       2.704347    1.119857    1.654353
H       3.077263   -1.606940    1.495992
H       0.655603   -2.745953    1.461181
H      -1.201365   -0.715105    1.603628
H       0.384212    0.976717    3.034503
