13

O      -0.038574    0.060263    0.286065
C       0.010736    1.220033    0.019507
O      -1.115018    1.950967   -0.288693
C      -0.786111    3.250373   -0.803902
C      -1.600789    4.276009   -0.141954
N      -2.231201    5.119055    0.331393
C       0.714579    3.428957   -0.579194
N       1.050028    3.288575    0.835145
C       1.204665    2.126611   -0.079126
H      -1.016518    3.259770   -1.875845
H       1.280525    4.074238   -1.239394
H       1.967251    3.691417    1.014617
H       2.177760    1.704527   -0.291280
