19

C       0.176627    0.762349    0.939072
O      -0.048460   -0.016727   -0.224503
C      -1.290896   -0.622348   -0.235145
C      -1.434096   -1.850101   -1.059054
C      -1.489413   -1.971671    0.466906
C      -0.406528   -2.581250    1.175737
C       0.489619   -3.099176    1.795915
C       1.619453   -3.666452    2.528189
O       2.401979   -2.693047    3.210952
H       1.164781    1.215113    0.831390
H      -0.571998    1.562953    1.034707
H       0.153994    0.144597    1.845568
H      -2.135066    0.067556   -0.177024
H      -2.350405   -2.008063   -1.615877
H      -0.530805   -2.216576   -1.531671
H      -2.474854   -2.131459    0.896070
H       1.260128   -4.353451    3.302682
H       2.240585   -4.263289    1.840938
H       2.639985   -2.018994    2.565897
