23

C      -0.109950    1.389068   -0.032267
O      -0.086983   -0.016784   -0.057706
C       0.675857   -0.535437   -1.124818
C       0.627402   -2.056096   -1.063959
C       1.432743   -2.722636   -2.184517
C       1.370282   -4.244658   -2.137468
C       0.053049   -4.921478   -2.586812
O       0.724005   -5.638171   -3.642541
C       1.986816   -5.020001   -3.323968
H       0.900096    1.814137    0.084808
H      -0.551082    1.808796   -0.950779
H      -0.720442    1.692428    0.821868
H       0.278800   -0.176470   -2.091121
H       1.720156   -0.181015   -1.058563
H       1.005214   -2.378427   -0.086031
H      -0.422122   -2.371334   -1.112105
H       1.064702   -2.379660   -3.161691
H       2.482621   -2.404161   -2.123629
H       1.721534   -4.604635   -1.165940
H      -0.420064   -5.600035   -1.866726
H      -0.709916   -4.233887   -2.978172
H       2.355853   -4.391078   -4.146184
H       2.755684   -5.761604   -3.074369
