12

O      -0.086057    1.308067   -0.014389
C      -0.009744   -0.018324    0.008787
N       1.078781   -0.739119    0.040756
N       0.640338   -2.056368    0.053876
C      -0.708679   -2.109346    0.030145
N      -1.730013   -2.945355    0.025175
C      -2.774952   -2.057762   -0.008670
N      -2.495005   -0.756911   -0.024945
N      -1.125901   -0.808486    0.001045
H       0.816274    1.654383   -0.003339
H       1.308398   -2.804132    0.079987
H      -3.802664   -2.391730   -0.021979
