16

O      -0.134902    1.261419   -0.627275
N       0.039656   -0.060669   -0.190291
C      -1.067185   -0.576347    0.163404
C      -1.157157   -2.002197    0.667899
C      -2.577413   -2.423385    0.245364
O      -3.139531   -3.462966    0.988121
C      -3.369107   -1.119722    0.384331
O      -4.514352   -1.089124    0.759819
C      -2.442814    0.052411    0.092538
H       0.758434    1.512699   -0.886091
H      -0.362869   -2.637206    0.274866
H      -1.105139   -2.027744    1.764534
H      -2.560149   -2.667785   -0.834153
H      -4.045060   -3.181172    1.190234
H      -2.591004    0.859377    0.817970
H      -2.634439    0.489247   -0.894559
