14

O      -0.137589    1.457503    0.010954
C       0.036169    0.052026    0.002434
C      -1.358209   -0.558572    0.011880
C      -1.340747   -2.060589    0.004256
O      -0.353467   -2.754567   -0.008281
C      -2.721689   -2.751285    0.013224
O      -3.764140   -2.151280    0.025395
C      -2.669921   -4.224193    0.004726
N      -2.684392   -5.380070   -0.001456
H       0.731550    1.869073    0.005324
H       0.582706   -0.290010   -0.888437
H       0.598519   -0.298774    0.879957
H      -1.926098   -0.216796    0.886960
H      -1.941607   -0.208186   -0.849492
