17

O       0.021965    1.288654   -0.074881
C      -0.020360   -0.086203   -0.073022
C       0.576860   -0.901582   -1.263372
C      -0.221784   -2.023245   -0.582973
C       0.438429   -2.773649    0.326336
C       0.204411   -2.221933    1.723277
C      -0.328596   -0.833598    1.300259
O      -0.645228    0.120122    2.274951
C      -1.187281   -1.031360    0.086932
H      -0.221279    1.563648    0.821817
H       0.170280   -0.497988   -2.197502
H       1.660310   -1.030992   -1.340274
H       1.377388   -3.266126    0.088185
H      -0.527844   -2.731679    2.367845
H       1.153812   -2.198085    2.271516
H      -1.486725   -0.111641    2.684332
H      -2.258369   -0.925052   -0.034508
