20

C      -0.100292    1.629553   -0.103001
C       0.008647    0.111463   -0.061756
C       1.114855   -0.583280   -0.937208
C       1.703964   -1.226389    0.327209
C       2.272900   -2.602879    0.470883
N       2.074677   -0.134704    1.212840
C       0.642221   -0.522097    1.184435
C       0.027741   -1.126393    2.363241
O       0.662280   -1.575374    3.298588
H       0.860985    2.086707    0.145636
H      -0.398626    1.972399   -1.099421
H      -0.846980    1.991817    0.612115
H      -0.963713   -0.352428   -0.258286
H       0.705994   -1.310703   -1.641693
H       1.800424    0.088457   -1.460503
H       3.310148   -2.628547    0.115938
H       2.262165   -2.915338    1.519646
H       1.701750   -3.329929   -0.114752
H       2.446463   -0.541014    2.074510
H      -1.081935   -1.188030    2.338502
