19

C       0.006999    1.569037    0.069382
C       0.005032    0.041260    0.030903
O       0.738884   -0.506078    1.124130
C      -1.415755   -0.538515   -0.035286
C      -1.429068   -2.065868   -0.134669
C      -2.861168   -2.634763   -0.115248
C      -2.892497   -4.092235   -0.219132
N      -2.901643   -5.244721   -0.303486
H       1.031709    1.944729    0.131262
H      -0.465245    1.990964   -0.823471
H      -0.546423    1.936683    0.943124
H       0.558364   -0.293045   -0.856191
H       0.368309   -0.143064    1.936656
H      -1.968769   -0.218125    0.860891
H      -1.941484   -0.099590   -0.893585
H      -0.930210   -2.384276   -1.057102
H      -0.852281   -2.487329    0.692931
H      -3.373174   -2.343448    0.809760
H      -3.449988   -2.217725   -0.941143
