17

C       0.043091    1.555579   -0.106188
C       0.023056    0.032607    0.019257
O       0.787677   -0.425654    1.121551
C      -1.403269   -0.525062    0.104767
C      -1.473805   -2.059643    0.213790
O      -2.348657   -2.290856    1.322501
C      -2.569235   -1.138488    1.993933
O      -3.177160   -1.043135    3.010699
O      -1.996249   -0.089481    1.339424
H       1.075748    1.910685   -0.136396
H      -0.465380    1.883317   -1.018731
H      -0.462747    2.018968    0.746956
H       0.494701   -0.413533   -0.865921
H       0.400875   -0.037621    1.916066
H      -2.015321   -0.142357   -0.719829
H      -1.898404   -2.535119   -0.672108
H      -0.494343   -2.488680    0.440776
