15

C      -0.028280   -1.225695   -0.053291
C       0.005895   -0.026562    0.018353
C       0.052612    1.421260    0.092055
O      -0.135590    1.961481    1.436809
C       1.076252    2.702144    1.338653
C       2.251786    1.800640    1.195890
C       1.419464    2.134556   -0.038164
C       1.923952    2.724041   -1.224275
C       2.336369    3.213311   -2.243788
H      -0.060588   -2.285604   -0.117241
H      -0.684662    1.871959   -0.580903
H       1.085660    3.718205    1.713702
H       3.222431    2.284726    1.202837
H       2.216147    0.798390    1.612198
H       2.702623    3.647228   -3.140918
