16

N       0.083234    1.209528   -0.062866
C       0.040973   -0.045696    0.011326
C      -1.092432   -0.931244   -0.455719
O      -0.755150   -2.223077    0.027479
C       0.611110   -2.223199    0.372323
C       1.458608   -2.917226   -0.708479
C       2.865398   -3.010861   -0.348301
C       4.019036   -3.087958   -0.022777
O       1.005689   -0.862166    0.526678
H       0.963146    1.571325    0.306686
H      -2.049827   -0.619830   -0.031061
H      -1.173018   -0.912549   -1.550864
H       0.734436   -2.725225    1.337624
H       1.033188   -3.916389   -0.859232
H       1.334162   -2.370112   -1.651095
H       5.041824   -3.153298    0.255135
