10

O      -0.219424   -0.047706    0.003305
C      -0.115704    1.141361    0.008386
N       1.130042    1.846713    0.001257
C       1.098681    3.253431    0.009057
O       0.096008    3.913457    0.021430
C       2.397042    1.213334   -0.013378
O       2.591416    0.035781   -0.022460
H      -0.950351    1.857051    0.018728
H       2.114251    3.688314    0.002633
H       3.206603    1.968887   -0.016547
