21

C      -1.084786    0.961841    0.101492
C      -0.229430   -0.306971    0.055028
C       0.568845   -0.340512   -1.265448
O       1.513619    0.704365   -1.313714
N       0.750639   -0.385149    1.168876
C       0.345355    0.209410    2.441166
C       1.199770   -1.761805    1.370214
C       2.451200   -1.829834    2.134861
N       3.431462   -1.891476    2.742697
H      -0.458469    1.855002    0.034891
H      -1.756709    0.962170   -0.761411
H      -1.702638    1.019790    0.999547
H      -0.907908   -1.179609    0.082865
H       1.051948   -1.322111   -1.404973
H      -0.116066   -0.206077   -2.109212
H       1.941451    0.692911   -0.445428
H      -0.551713   -0.266358    2.875902
H       1.165136    0.100925    3.156466
H       0.151705    1.274839    2.321046
H       0.444865   -2.379252    1.892501
H       1.377758   -2.237674    0.402325
