19

C       0.209884    1.594053   -0.223895
C       0.099375    0.154720   -0.040101
C       0.013025   -1.036136    0.121568
C      -0.065789   -2.475122    0.305136
O      -0.208035   -2.888386    1.689770
C      -1.317562   -3.756670    1.365011
C      -1.375768   -3.227701   -0.079851
C      -2.580340   -2.365253   -0.400981
O      -3.702326   -3.234986   -0.468798
H       1.099598    1.854856   -0.807343
H      -0.663395    1.999083   -0.746886
H       0.284307    2.106048    0.741775
H       0.822790   -2.945964   -0.139502
H      -1.048782   -4.815612    1.463706
H      -2.198172   -3.550735    1.983228
H      -1.249075   -3.983004   -0.857989
H      -2.708010   -1.601444    0.380742
H      -2.418415   -1.836198   -1.352723
H      -4.489444   -2.700321   -0.606666
