19

N      -0.009604    1.459027    0.032783
C      -0.008946    0.018120   -0.002247
C      -0.471199   -0.689953    1.263553
C      -1.367545   -0.687635    0.060090
C      -2.632468    0.105126    0.015908
C      -3.491752    0.085086   -1.226227
C      -3.960828   -0.613385    0.024811
C       1.026927   -0.621243   -0.786698
N       1.864117   -1.094767   -1.431547
H       0.864710    1.806284    0.415274
H      -0.101692    1.839496   -0.904376
H       0.029826   -1.607866    1.546577
H      -0.726349   -0.025126    2.081124
H      -1.403427   -1.621675   -0.494327
H      -2.585221    1.045951    0.551932
H      -3.985054    1.003977   -1.522731
H      -3.167319   -0.532240   -2.057676
H      -3.951315   -1.698393    0.032576
H      -4.774760   -0.174163    0.590669
