16

C       0.005933   -1.248469   -0.371939
C       0.017283   -0.062397   -0.178276
C      -0.004983    1.387329    0.043009
C      -0.835009    1.791394    1.276135
N      -0.393946    1.359376    2.587004
C       0.796208    1.423308    2.995700
O       1.951736    1.779922    2.366301
C       2.171498    1.401633    1.009121
O       1.301554    1.968375    0.086094
H      -0.006791   -2.296807   -0.544006
H      -0.476775    1.859298   -0.826613
H      -0.880819    2.889144    1.276866
H      -1.855932    1.425844    1.123057
H       1.007454    1.217130    4.045180
H       3.166212    1.781781    0.775252
H       2.144090    0.306145    0.948977
