20

C      -0.057831    1.408172   -0.237997
C       1.292614    0.785870   -0.131332
N       0.085124   -0.016637    0.056937
C      -0.220411   -0.456782    1.357171
C      -0.040273   -1.812369    1.988525
C       0.629490   -1.222337    3.226105
C      -0.077328    0.111695    2.863490
C      -1.586573   -0.200884    3.051106
C      -1.443120   -1.165761    1.877750
H      -0.366083    2.067428    0.570549
H      -0.479636    1.645599   -1.210302
H       1.868707    0.563454   -1.024818
H       1.884065    1.030533    0.748276
H       0.174320   -2.743583    1.480660
H       0.398686   -1.651979    4.208297
H       1.714131   -1.160231    3.099588
H       0.337797    1.066670    3.180723
H      -1.890889   -0.596638    4.027494
H      -2.218563    0.652470    2.789025
H      -2.219282   -1.640313    1.291653
