19

C      -0.121586    1.581369    0.158963
C      -0.039735    0.086521   -0.040728
O      -1.138464   -0.617937    0.470590
C       0.527614   -0.556500   -1.263938
C       1.116651    0.205107   -2.432300
O       2.189116   -0.501988   -3.032223
C       1.306746   -0.651033    0.060617
C       2.551021    0.040293    0.208781
C       3.606117    0.614345    0.308834
H       0.780193    2.092479   -0.180975
H      -0.987228    1.990443   -0.370835
H      -0.239077    1.808133    1.225929
H      -1.209036   -0.415939    1.410966
H       0.040822   -1.487434   -1.537705
H       0.357791    0.325695   -3.212547
H       1.431258    1.211209   -2.125057
H       2.896620   -0.537149   -2.377775
H       1.244958   -1.613594    0.559017
H       4.530857    1.123874    0.422360
