17

C       0.325303    1.781336    0.290589
C      -0.034297    0.354343   -0.112556
O       0.524368    0.107143   -1.416274
C      -0.178107   -0.725718   -2.232146
O      -1.223753   -1.237047   -1.931952
C       0.544826   -0.899385   -3.563674
N      -0.115760   -1.767627   -4.517163
C       0.501335   -0.634711    0.837934
N       0.923883   -1.394776    1.597986
H       1.409125    1.914553    0.306878
H      -0.109302    2.479628   -0.428245
H      -0.071926    2.000842    1.284566
H      -1.117568    0.213816   -0.167906
H       0.689041    0.097605   -3.996934
H       1.552115   -1.273939   -3.347578
H      -0.230505   -2.691037   -4.109188
H      -1.060404   -1.431779   -4.682112
