13

C       0.002794    1.384222    0.010070
C       1.318491    1.827104   -0.000506
N       2.106999    0.721985   -0.014379
N       3.456170    0.686891   -0.027875
N       3.997180   -0.474604   -0.039602
C       3.209528   -1.601295   -0.038021
N       1.901052   -1.642400   -0.025363
C       1.294128   -0.449942   -0.012814
C      -0.022426   -0.026431    0.002427
H      -0.859766    2.033740    0.022191
H       1.751086    2.813590    0.000676
H       3.761693   -2.533970   -0.048655
H      -0.885145   -0.672335    0.007316
