18

C       0.029741    1.411218   -0.060079
C      -0.107168   -0.133268    0.058120
C       0.419218   -0.512919    1.458318
O       1.435646   -1.117052    1.660189
C      -1.520238   -0.504959    0.000628
C      -2.684578   -0.806535   -0.020129
C       0.728641   -0.818386   -1.023532
C       0.408980   -2.166541   -1.538159
N       0.219022   -0.974596   -2.391289
H       1.084321    1.696563   -0.007789
H      -0.376822    1.745324   -1.017381
H      -0.514792    1.917774    0.741532
H      -0.224255   -0.146697    2.288546
H      -3.713147   -1.072518   -0.041969
H       1.773499   -0.524790   -0.975569
H       1.213827   -2.828263   -1.842877
H      -0.475038   -2.663213   -1.149504
H      -0.773620   -0.745021   -2.410418
