19

C       0.332938    0.082411   -1.833281
C      -0.117103    0.312087   -0.406288
C      -1.562132   -0.087208   -0.138045
C      -2.106703    0.198493    1.285073
N      -3.566435    0.281582    1.393165
C      -1.636919   -0.818650    2.241172
N      -1.260950   -1.638001    2.964244
C       0.895648    0.393529    0.657272
O       0.268557    1.580125    0.148391
H       1.349490    0.455081   -1.978271
H       0.312938   -0.984288   -2.080655
H      -0.325921    0.603869   -2.536232
H      -2.191568    0.485287   -0.831767
H      -1.704440   -1.145301   -0.387086
H      -1.697736    1.163967    1.604614
H      -3.898628    1.052566    0.821843
H      -3.993404   -0.565003    1.027387
H       0.655759    0.137686    1.685730
H       1.945478    0.276524    0.391510
