19

C       0.017768    1.584848   -0.059290
C       0.053321    0.050731   -0.000369
C       0.694624   -0.621485   -1.212219
O       2.099462   -0.365846   -1.405938
C       1.690258   -1.604526   -0.761454
C       1.768945   -1.607848    0.745425
C       2.255980   -0.352825    1.449936
O       3.062752    0.618985    0.875779
C       0.774716   -0.535950    1.226686
H       1.028766    1.996710   -0.054172
H      -0.501133    1.934680   -0.957872
H      -0.509899    1.988130    0.810188
H      -0.980497   -0.320841    0.024061
H       0.135260   -0.709258   -2.140910
H       1.944261   -2.498442   -1.322463
H       1.876616   -2.573680    1.226319
H       2.558786   -0.512618    2.481885
H       2.946447    0.539914   -0.083865
H       0.164548   -0.702215    2.109359
