18

C       0.002495    1.474894    0.118149
O       1.441425    1.442579   -0.113115
C       1.353184    0.101376   -0.677663
C       2.231837   -1.016077   -0.140351
C       1.487445   -2.325897   -0.491173
C       0.084047   -2.438175    0.157990
C      -0.625654   -1.110847    0.305937
C      -0.045298   -0.009650   -0.142724
H      -0.253803    1.817947    1.127175
H      -0.505654    2.112550   -0.619534
H       1.431124    0.158918   -1.774600
H       3.235480   -1.013943   -0.577388
H       2.332725   -0.902709    0.944782
H       1.385175   -2.379383   -1.582632
H       2.089629   -3.191839   -0.199792
H      -0.525807   -3.154300   -0.408232
H       0.177161   -2.873155    1.163793
H      -1.554046   -1.087644    0.871765
