17

C       0.419165    1.567677    0.215175
O      -0.161905    0.288682    0.435032
C       0.674854   -0.585873    1.116103
C       0.067511   -2.009733    1.401020
C       1.390338   -2.677414    0.937842
C       1.787200   -1.331061    0.326889
O       2.525999   -0.987052   -0.548869
C      -0.351990   -2.225293    2.829949
O       0.332814   -2.768778    3.660063
H       1.321373    1.494915   -0.401978
H      -0.330594    2.168559   -0.303038
H       0.674333    2.054512    1.168555
H       1.087530   -0.135357    2.036737
H      -0.770783   -2.168111    0.717657
H       2.008660   -2.950089    1.799720
H       1.331828   -3.525448    0.253888
H      -1.347725   -1.805848    3.093357
