15

N       0.008426    1.379716    0.068220
C      -0.078262   -0.000552    0.020295
C      -1.107455   -0.874263   -0.171381
C      -0.535758   -2.185047   -0.005250
C      -1.251673   -3.504825   -0.092158
C      -1.898414   -3.724614   -1.390386
N      -2.415893   -3.891596   -2.409745
C       0.778601   -2.004074    0.267403
O       1.072155   -0.662400    0.290556
H       0.916945    1.728080   -0.209458
H      -0.730446    1.841156   -0.443289
H      -2.129446   -0.631917   -0.413929
H      -0.551807   -4.327478    0.088748
H      -2.026520   -3.578627    0.681799
H       1.603091   -2.668899    0.459372
