17

O       0.004352    1.430704   -0.074251
C       0.019150    0.018387    0.007203
C       0.622543   -0.548412    1.337620
C      -0.554309   -1.359253    1.972377
C      -1.656760   -0.387471    2.327228
C      -2.166969    0.114961    1.191388
C      -1.443853   -0.507631    0.017882
C      -1.189117   -1.898141    0.663202
O      -1.413200   -3.004686    0.280030
H       0.916400    1.738725   -0.078579
H       0.544609   -0.409149   -0.858802
H       1.484221   -1.194012    1.143119
H       0.936997    0.270243    1.989638
H      -0.271305   -2.095479    2.722211
H      -1.948165   -0.142470    3.340352
H      -2.953046    0.851177    1.095052
H      -1.944339   -0.492303   -0.947563
