22

O      -0.169328    1.500641    0.134476
C       0.002048    0.088429    0.003698
C       0.815763   -0.469875    1.183867
C       1.520692   -1.822658    0.958362
C       0.745570   -2.897940    0.168478
C      -0.772717   -2.958286    0.408192
C      -1.565477   -1.949297   -0.439576
C      -1.422576   -0.472025   -0.055033
H       0.701697    1.895993    0.238929
H       0.525144   -0.134699   -0.943054
H       1.585685    0.266360    1.451064
H       0.150341   -0.526469    2.053919
H       2.474725   -1.648858    0.445578
H       1.785465   -2.223640    1.944140
H       0.910730   -2.751475   -0.906856
H       1.192612   -3.871031    0.402386
H      -1.125872   -3.964111    0.151893
H      -0.999402   -2.822313    1.474442
H      -1.271519   -2.081542   -1.490315
H      -2.631377   -2.202804   -0.393688
H      -1.882787   -0.295855    0.926156
H      -1.984348    0.138404   -0.770547
