14

N      -2.061098   -3.048572    0.047529
C      -1.151787   -2.167587    0.034573
N      -1.368247   -0.795152   -0.036453
C      -2.536169   -0.054962   -0.107231
C      -2.434747    1.352983   -0.170870
N      -3.507909    2.106922   -0.239274
C      -4.671060    1.431806   -0.242729
N      -4.814385    0.115973   -0.184692
N      -3.727186   -0.652419   -0.115166
H      -1.639288   -3.974105    0.103703
H      -0.072382   -2.363204    0.076934
H      -0.525924   -0.242197   -0.036782
H      -1.463125    1.848511   -0.164719
H      -5.586107    2.012088   -0.298068
