18

O      -0.629024    0.326789    0.202630
C      -0.056734    1.385663    0.176905
C       1.363891    1.587097   -0.313642
C       1.434827    2.669482   -1.373277
N       1.343940    4.065824   -0.884839
C       2.579423    3.597118   -1.488599
C       3.950768    3.600625   -0.821747
O       4.564070    4.015922   -2.064651
C       3.292224    4.106526   -2.738794
H      -0.552623    2.321312    0.518527
H       1.970375    1.898900    0.546675
H       1.748768    0.633691   -0.687279
H       0.915934    2.433821   -2.301989
H       0.819643    4.647627   -1.534412
H       4.071196    4.347060   -0.027181
H       4.334325    2.632002   -0.477909
H       3.245208    3.465218   -3.628011
H       3.048629    5.139628   -3.025012
