16

C       0.005921    1.504052    0.029688
C       0.007745    0.011749   -0.070402
C      -0.900268   -0.938432    0.746565
O      -1.066564   -2.160151    0.025873
C       0.358957   -2.075449   -0.272380
C       0.566259   -1.060418    0.918849
C       0.447337   -0.859762   -1.190773
N       0.915008   -0.574603   -2.330767
O       1.389264   -1.733933   -2.989294
H       0.984226    1.916869   -0.236054
H      -0.735976    1.937672   -0.648714
H      -0.237193    1.830736    1.045927
H      -1.692006   -0.592524    1.398957
H       0.844306   -3.025081   -0.469227
H       1.270091   -0.978448    1.734737
H       1.695559   -1.373157   -3.827718
