19

O       0.008194    1.405861    0.009570
C      -0.026936   -0.009527   -0.026234
C      -1.442540   -0.482456    0.037647
C      -2.545567    0.275023    0.055382
C      -3.786090   -0.548262    0.067437
C      -3.993101   -1.446581   -1.152628
C      -3.307239   -1.994649    0.055527
O      -3.970815   -3.027925    0.715963
C      -1.776164   -1.961248    0.095325
H       0.924541    1.684076   -0.071318
H       0.449493   -0.398378   -0.944345
H       0.539297   -0.446968    0.816861
H      -2.541064    1.357162    0.033618
H      -4.663019   -0.238344    0.625274
H      -5.000043   -1.816714   -1.313129
H      -3.421407   -1.235201   -2.050742
H      -3.795590   -2.937775    1.659479
H      -1.329767   -2.534136   -0.727301
H      -1.406054   -2.421964    1.024664
