16

C      -0.031950    1.449383    0.176246
C      -0.000092   -0.064394   -0.028112
C      -1.397541   -0.698001    0.010980
O      -2.363550   -0.151249    0.467109
N       0.680605   -0.471881   -1.251596
C       0.307330   -0.227215   -2.547464
N       1.160590   -0.753129   -3.387191
N       2.141609   -1.373204   -2.637593
C       1.835335   -1.195353   -1.379999
H       0.983130    1.848745    0.229017
H      -0.561111    1.943026   -0.642801
H      -0.561881    1.680850    1.101937
H       0.555209   -0.535055    0.795121
H      -1.439453   -1.725065   -0.413193
H      -0.576998    0.331966   -2.812451
H       2.397121   -1.554594   -0.531085
