17

C      -0.073170    1.466883   -0.127797
O       1.162355    0.776035    0.111862
C      -0.026794    0.011713   -0.018471
C      -0.482218   -0.977506    1.089103
C      -0.200519   -2.145167    0.065695
O      -1.163720   -3.114103   -0.294100
C      -1.491871   -2.901264   -1.680881
C      -1.037483   -1.481639   -1.992630
C      -0.232373   -1.099448   -1.008042
H      -0.448346    2.056946    0.707551
H      -0.164414    1.933947   -1.107500
H       0.110933   -0.965427    2.006097
H      -1.547567   -0.887559    1.311017
H       0.771531   -2.615409    0.266509
H      -1.006037   -3.666946   -2.307151
H      -2.576423   -3.011927   -1.807821
H      -1.452161   -0.892071   -2.800366
