13

O       0.009170    0.074358    0.278725
C       0.015386    1.224777   -0.006469
O      -1.014917    1.979519   -0.512801
C      -0.206621    3.197762   -0.501623
C       1.002530    2.404061    0.028708
C       1.561441    2.794091    1.404054
C       2.610310    1.886068    1.864853
N       3.455204    1.183565    2.220133
H      -0.112792    3.613942   -1.505862
H      -0.631429    3.936430    0.182685
H       1.810870    2.286244   -0.696099
H       1.981567    3.805308    1.354317
H       0.758929    2.818310    2.149969
