18

O      -0.026026    1.364863   -0.080158
C       0.009183   -0.036786   -0.008952
C       0.952883   -0.539633   -1.102188
C       2.369518   -0.059099   -0.862093
O       3.277298   -0.782131   -0.535174
C       0.276253   -0.670737    1.422611
C      -1.127783   -1.267712    1.367223
N      -2.049996   -0.115632    1.182541
C      -1.374897   -0.720296    0.008050
H      -0.742126    1.630723    0.514738
H       0.952847   -1.632287   -1.132813
H       0.598460   -0.145081   -2.062816
H       2.518308    1.033686   -0.987203
H       1.074845   -1.415162    1.401950
H       0.457389    0.047666    2.225405
H      -1.482906   -2.189370    1.809825
H      -3.005980   -0.466795    1.202972
H      -1.944660   -1.106602   -0.829112
