19

C      -0.262670    1.619464   -0.292268
C       0.036213    0.123898   -0.017336
C      -1.205671   -0.629859    0.193250
C      -2.235224   -1.220953    0.376140
C       0.847343   -0.465640   -1.089256
C       1.526793   -0.919622   -1.973012
C       2.323750   -1.503521   -3.044186
C       1.700422   -2.786425   -3.605772
O       2.563983   -3.249294   -4.630159
H       0.674309    2.170735   -0.403083
H      -0.842990    1.726229   -1.211333
H      -0.834544    2.045677    0.535817
H       0.616683    0.070271    0.915492
H      -3.139569   -1.754092    0.535320
H       2.443790   -0.788677   -3.867374
H       3.334302   -1.737374   -2.687531
H       1.593163   -3.524396   -2.797130
H       0.693315   -2.565287   -3.989084
H       2.191374   -4.055918   -4.997248
