17

C      -0.348937    0.823042    1.239201
N       0.026874    0.355357   -0.093557
C       1.143163   -0.571691   -0.108694
C       0.888387   -1.951718    0.446559
N      -0.317422   -2.389396    0.692431
O      -0.087095   -3.716850    1.154352
C       1.237805   -3.884606    1.117783
N       1.735024   -5.065330    1.563413
N       1.904922   -2.847010    0.691072
H       0.485620    1.389034    1.668900
H      -1.198779    1.505929    1.149854
H      -0.621424    0.022252    1.942760
H      -0.775264   -0.080554   -0.535973
H       1.501078   -0.694910   -1.139651
H       1.981610   -0.136421    0.447543
H       1.105934   -5.851890    1.573965
H       2.686349   -5.261315    1.297404
