16

C      -0.071413    1.422717   -0.030724
N      -0.003380   -0.028208   -0.025513
C       0.638647   -0.625539   -0.928296
O       1.300380   -0.052954   -1.983708
C       2.106794   -1.038912   -2.670460
C       1.397067   -2.375240   -2.417867
O       2.230037   -3.494790   -2.452224
C       0.794830   -2.119103   -1.042241
O       0.582129   -2.969641   -0.218933
H       0.668873    1.905289   -0.677970
H      -1.072645    1.728776   -0.357976
H       0.048587    1.780585    0.996353
H       2.158620   -0.742885   -3.718194
H       3.116013   -1.065246   -2.244293
H       0.555524   -2.469067   -3.128041
H       1.957961   -4.055673   -1.710565
