21

C       0.230421    1.441035   -0.218660
C       0.032031   -0.057746    0.019332
C       0.737457   -0.559080    1.285424
C       0.559494   -2.046039    1.509673
O       1.250045   -2.851797    0.484929
C       2.115883   -3.387042    1.413701
N       3.129929   -4.112035    1.271444
C       1.421487   -2.736069    2.607427
N       2.143623   -1.909381    3.547769
H       1.292201    1.687049   -0.330596
H      -0.284159    1.770380   -1.126475
H      -0.158520    2.031677    0.618344
H      -1.040609   -0.280961    0.092617
H       0.404965   -0.625001   -0.841244
H       1.808341   -0.325279    1.226818
H       0.354647   -0.037166    2.171460
H      -0.500948   -2.318536    1.523251
H       3.304668   -4.322185    0.286819
H       0.834843   -3.469734    3.166962
H       2.551739   -2.489873    4.272564
H       2.919804   -1.441214    3.090600
