19

C       0.199700    1.544352    0.125524
C      -0.181486    0.077759   -0.113381
C       0.572212   -0.516418   -1.286026
C       1.922479   -1.154183   -1.129287
C       0.723347   -2.025917   -1.489777
C       0.184309   -3.035149   -0.486045
C       0.651733   -2.474140   -2.859685
N       0.584273   -2.839943   -3.955710
H       1.268716    1.644187    0.339701
H      -0.021519    2.158038   -0.754122
H      -0.355288    1.960707    0.971342
H       0.015469   -0.499382    0.796251
H      -1.260461    0.005150   -0.298704
H       0.433472    0.033439   -2.213496
H       2.679619   -0.985521   -1.885652
H       2.308419   -1.285705   -0.123123
H       0.313741   -2.677664    0.537196
H      -0.880302   -3.225837   -0.651034
H       0.716415   -3.986357   -0.579354
