19

C      -0.136356    1.535292    0.266342
C       0.036920    0.038355    0.128779
N       1.295925   -0.602746   -0.250086
C       2.488683    0.186369   -0.524968
C       0.844462   -0.737624    1.115519
C       1.476735   -0.270293    2.431378
O       1.092967   -1.543544    3.035583
C       0.546477   -2.011708    1.846828
N      -0.000441   -3.103017    1.570271
H       0.694289    2.014199    0.790368
H      -0.232123    2.006775   -0.717554
H      -1.051896    1.751778    0.826323
H      -0.826345   -0.474538   -0.293134
H       2.640399    1.052146    0.136491
H       3.364524   -0.463715   -0.438127
H       2.439707    0.549153   -1.555832
H       2.563661   -0.147465    2.432699
H       0.998355    0.568374    2.944338
H      -0.020154   -3.728563    2.377080
