16

C       0.245955    1.643515   -0.112663
C      -0.046677    0.177200   -0.117487
C       0.363038   -0.875067   -1.081635
N       0.838028   -0.878159    0.415294
C      -0.249889   -1.282984    1.435512
C      -1.210175   -0.615707    0.472095
C      -1.875315   -1.359077   -0.447295
C      -0.917936   -1.527303   -1.594584
O      -1.031895   -2.190601   -2.593803
H       1.270530    1.821359   -0.450499
H      -0.438444    2.176665   -0.779953
H       0.137663    2.064055    0.892438
H       1.229413   -0.790900   -1.728136
H      -0.384641   -2.350061    1.627183
H       0.016750   -0.745740    2.348439
H      -2.506638   -2.205931   -0.194190
