23

C       0.038888    1.387005    0.314108
C       0.091091   -0.068168   -0.112501
C      -1.249570   -0.699300   -0.464993
C      -2.071011    0.064055   -1.508672
O      -1.311807    0.422651   -2.670770
C      -3.317338   -0.704741   -1.957644
O      -4.017269    0.008400   -2.952662
C       1.313228   -0.527285   -0.874083
C       1.108969   -0.959981    0.558812
H       1.027068    1.736903    0.628174
H      -0.294229    2.028341   -0.507995
H      -0.646364    1.529629    1.158442
H      -1.081109   -1.726201   -0.820582
H      -1.864535   -0.790514    0.441217
H      -2.399410    1.025527   -1.097993
H      -0.790225   -0.344159   -2.933274
H      -3.010441   -1.704800   -2.317761
H      -4.000909   -0.856609   -1.114644
H      -3.331539    0.361421   -3.535268
H       1.196251   -1.280762   -1.647344
H       2.087343    0.201921   -1.087715
H       1.746012   -0.523005    1.320478
H       0.844827   -1.996013    0.745339
