21

C       0.370210    1.602418    0.029009
C       0.090266    0.108005    0.028572
C       0.874061   -0.804545   -0.976400
C       1.294687   -1.737649    0.198056
O       0.913697   -3.079352    0.138354
C       2.622544   -1.385413    0.909243
C       3.868247   -0.942798    0.173673
O       1.960280   -0.308143    1.629960
C       0.650385   -0.738739    1.196689
H       1.428883    1.792857    0.223799
H       0.105945    2.051579   -0.934324
H      -0.208974    2.112448    0.806561
H      -0.985162   -0.079050   -0.065161
H       0.235481   -1.310253   -1.705217
H       1.693479   -0.316260   -1.509654
H       1.159518   -3.427486   -0.725199
H       2.867146   -2.201280    1.606351
H       3.660792   -0.134745   -0.533028
H       4.616398   -0.581511    0.886504
H       4.306450   -1.785295   -0.373162
H      -0.000510   -1.014817    2.030516
