18

C      -0.459491    1.384338   -0.015831
C       1.028981    1.322282    0.006036
C       0.229463    0.012153    0.017801
C       0.168582   -0.697944    1.312824
C      -0.038200   -1.993665    1.536211
C      -0.307510   -3.054541    0.512936
O       0.391196   -2.973104   -0.734133
C       0.340587   -1.859400   -1.507197
N       0.247962   -0.628705   -1.249449
H      -0.986367    1.700058    0.877215
H      -0.945155    1.628598   -0.952114
H       1.562538    1.530296   -0.912404
H       1.552035    1.589212    0.917433
H       0.297929   -0.050243    2.178188
H      -0.077251   -2.342448    2.565064
H      -0.026097   -4.033955    0.909695
H      -1.384925   -3.096299    0.292754
H       0.442151   -2.160206   -2.550490
