24

C       0.432921    1.145536    0.365704
C       0.123384   -0.354379    0.359886
C      -1.325063   -0.733115    0.007240
C      -1.455142   -2.257087   -0.092411
N      -2.228923   -0.258673    1.064213
C      -2.773123    1.095404    1.008080
C      -3.662094   -0.084559    0.833701
C      -4.389056   -0.331610   -0.474493
O      -3.789456    0.388655   -1.541516
H       1.500555    1.318587    0.536208
H       0.171371    1.610502   -0.591720
H      -0.115029    1.668741    1.153452
H       0.779751   -0.850466   -0.366567
H       0.360225   -0.784114    1.341122
H      -1.580113   -0.289497   -0.966493
H      -2.471349   -2.561184   -0.358742
H      -0.776576   -2.652581   -0.854820
H      -1.207569   -2.722797    0.867155
H      -2.765629    1.655803    1.940322
H      -2.585477    1.683499    0.113431
H      -4.267474   -0.407347    1.681227
H      -4.411194   -1.410873   -0.691989
H      -5.434932   -0.014335   -0.327862
H      -4.207207    0.111838   -2.362184
