16

O       0.425034    1.609643    0.006140
C       0.132789    0.219382   -0.094127
C       0.750849   -0.396825   -1.266709
C       1.314013   -0.876737   -2.213697
C       0.556274   -0.481854    1.201749
C      -0.227915   -0.098501    2.470509
C      -0.684330   -1.542151    2.429351
N      -1.423212   -2.262634    3.137823
O       0.034190   -1.844993    1.282783
H       1.344520    1.735949   -0.252746
H      -0.959018    0.146578   -0.173865
H       1.789775   -1.309830   -3.059190
H       1.646108   -0.485074    1.297633
H       0.368718    0.168883    3.343205
H      -1.014654    0.644022    2.327402
H      -1.475731   -3.215263    2.772993
