19

C      -0.214242    1.520626    0.097976
C       0.166462    0.050979   -0.112624
C       0.778555   -0.564911    1.129593
O      -0.109316   -0.577295    2.290998
C       0.142118   -1.959760    2.502471
C      -0.361601   -2.781645    1.369634
C       0.993838   -2.086972    1.237238
C       2.210856   -2.766102    0.971989
C       3.252398   -3.319867    0.730349
H       0.663696    2.125550    0.349651
H      -0.664285    1.942944   -0.805029
H      -0.933262    1.616760    0.916349
H      -0.716175   -0.524816   -0.411349
H       0.897994   -0.042360   -0.925583
H       1.702172   -0.040181    1.405399
H       0.315271   -2.303359    3.515530
H      -0.279242   -3.856303    1.493292
H      -1.217175   -2.440653    0.794865
H       4.170092   -3.811660    0.523043
