18

C      -0.119312    1.516527    0.031824
C       0.056611    0.003248    0.030734
C       1.080009   -0.603224   -0.956648
C       2.401812   -0.051745   -0.417012
O       2.184405   -0.050754    1.006275
C       0.860526   -0.592547    1.204897
C       0.912030   -2.045868    0.776856
N       0.849478   -3.078769    1.492649
O       1.056638   -2.009963   -0.597259
H       0.800426    2.029116    0.322909
H      -0.421720    1.879693   -0.956120
H      -0.899945    1.806558    0.741541
H      -0.904752   -0.504551   -0.090925
H       0.902576   -0.509015   -2.026367
H       3.240753   -0.707059   -0.672689
H       2.615885    0.965172   -0.766077
H       0.548315   -0.414635    2.230020
H       0.927283   -3.922516    0.920434
