13

C       0.114864    1.361147   -0.073832
N       0.004625   -0.076340   -0.231709
C      -1.101252   -0.601997    0.025339
O      -1.217307   -1.971615   -0.121815
C      -2.419926   -2.547628    0.156560
O      -3.408963   -1.983766    0.523044
C      -2.293529   -4.060385   -0.081243
O      -3.218911   -4.799198    0.093870
H       0.912062    1.579982    0.644178
H       0.415823    1.802427   -1.029658
H      -0.811139    1.848470    0.265548
H      -2.021217   -0.119067    0.360487
H      -1.292760   -4.390931   -0.420347
