16

O       0.245471    1.336774    0.246215
C       0.133240   -0.002009    0.028650
C       0.020732   -0.784334   -1.091975
C      -0.048382   -2.168851   -0.664490
C       0.031741   -2.130140    0.692995
O      -0.071404   -2.990256    1.746273
C       0.283879   -2.231054    2.917027
C       0.034556   -0.740861    2.560121
N       0.168755   -0.831154    1.123191
H       0.235106    1.778923   -0.607886
H       0.024449   -0.432410   -2.112469
H      -0.144747   -3.038378   -1.292245
H      -0.323609   -2.584898    3.751342
H       1.344581   -2.396474    3.143229
H      -0.966711   -0.400918    2.853588
H       0.776863   -0.079162    3.012485
