18

C      -0.137192    1.523249    0.109882
C      -0.019015    0.042251   -0.038095
C      -0.053641   -0.761302   -1.155899
C       0.108600   -2.115566   -0.733937
C       0.230943   -2.097716    0.636971
N       0.155933   -0.788656    1.044313
C       0.143441   -3.318002   -1.590653
C       1.301117   -4.233099   -1.634754
O       0.115434   -4.585934   -0.923553
H       0.759316    1.969337    0.558818
H      -0.277215    1.983394   -0.870815
H      -0.992282    1.811448    0.734502
H      -0.175904   -0.414423   -2.171537
H       0.338952   -2.908873    1.337304
H       0.192073   -0.482477    2.001134
H      -0.480285   -3.275614   -2.485166
H       1.500964   -4.820663   -2.530915
H       2.167612   -4.006982   -1.015367
