19

C      -0.100604    1.455119   -0.372194
C       0.057141   -0.027220   -0.046543
C       0.717124   -0.297153    1.295438
O       1.009010    0.592009    2.064762
C       1.032551   -1.747789    1.619647
C       2.554071   -2.126229    1.463585
C       2.462851   -2.766864    2.859692
O       3.142827   -3.555310    3.446335
C       1.106582   -2.111613    3.132707
H       0.872654    1.950836   -0.417564
H      -0.601837    1.588863   -1.334654
H      -0.686183    1.961575    0.398827
H      -0.916769   -0.538485   -0.034581
H       0.636990   -0.552414   -0.818812
H       0.400634   -2.429355    1.046538
H       2.843780   -2.779789    0.638125
H       3.201131   -1.242770    1.473575
H       1.220755   -1.200980    3.731609
H       0.323656   -2.740075    3.561895
