17

O      -0.044944   -0.009876    0.306635
C      -0.070995    1.173828    0.054372
N      -1.226520    1.843637   -0.270430
C      -1.435854    3.278860   -0.097851
C      -0.199868    3.908263    0.529703
C       0.307972    3.315456    1.894432
C       1.535607    2.749899    1.158874
C       1.092137    3.393738   -0.123776
N       1.124924    1.949308    0.009804
H      -2.037784    1.244307   -0.250113
H      -1.644564    3.758102   -1.064917
H      -2.314140    3.442849    0.539726
H      -0.293616    4.995052    0.551823
H       0.575619    4.106936    2.597608
H      -0.332776    2.589218    2.403331
H       2.529244    2.598546    1.562233
H       1.663736    3.850006   -0.923661
