19

C       0.081430    1.491043    0.057897
C       0.021789   -0.033482   -0.025785
C       0.781568   -0.634248   -1.248496
C       1.359518   -1.934091   -0.696112
C       2.601354   -1.835256    0.171505
C       1.234527   -1.828645    0.796366
O       0.722390   -0.560070    1.122773
C      -1.374811   -0.500642   -0.008844
C      -2.514697   -0.882476    0.003220
H       1.125393    1.814784    0.081007
H      -0.415628    1.938856   -0.806795
H      -0.416944    1.841252    0.964606
H       0.108410   -0.806135   -2.090206
H       1.562795    0.060189   -1.575280
H       1.156121   -2.863202   -1.213646
H       3.209457   -2.727498    0.280168
H       3.150880   -0.899522    0.178809
H       0.889467   -2.638190    1.430809
H      -3.521408   -1.220689    0.021257
