15

C       0.001921    1.433379    0.059330
C       1.481456    1.925008   -0.099160
C       2.232259    0.626976    0.025584
C       1.332006   -0.404155   -0.074801
N       0.005018   -0.026299   -0.279843
N       2.015583   -1.563387   -0.053999
N       3.364115   -1.341049    0.074846
C       3.484564   -0.012752    0.105548
H      -0.325614    1.579572    1.096826
H      -0.691735    1.966416   -0.595322
H       1.629820    2.394210   -1.080183
H       1.724021    2.678636    0.656182
H      -0.687278   -0.552917    0.239171
H       1.682094   -2.510080   -0.094842
H       4.471797    0.417157    0.197377
