18

C      -0.531884    0.475612    1.066855
C      -0.014403   -0.508849    0.133548
C       0.417395   -1.331385   -0.636848
C       0.926501   -2.283516   -1.597071
O       0.652244   -2.220748   -2.777808
C       1.873071   -3.362161   -1.066789
N       1.526570   -3.806458    0.272136
C       0.600393   -4.932448    0.358378
C       2.045465   -5.110026    0.671194
H       0.283716    0.950026    1.623403
H      -1.096007    1.260404    0.552567
H      -1.196847    0.002358    1.797755
H       1.893784   -4.167068   -1.819568
H       2.877918   -2.917888   -1.031845
H      -0.135155   -4.876424    1.155139
H       0.235983   -5.366311   -0.571492
H       2.644942   -5.664981   -0.048695
H       2.383698   -5.186471    1.700576
