18

N      -0.466184    1.414046   -0.339826
C      -0.027943    0.179747    0.092332
O       1.110572   -0.021459    0.446991
C      -1.153271   -0.850414    0.185000
N      -0.738086   -2.242471    0.412752
C      -1.751359   -2.436755    1.481965
C      -1.919624   -0.918293    1.526139
C      -1.837947    0.018029    2.661338
N      -3.110940   -0.200572    1.932332
H       0.246533    2.111196   -0.494701
H      -1.299044    1.489211   -0.900607
H      -1.856607   -0.713858   -0.655118
H      -0.819567   -2.854754   -0.389580
H      -2.674827   -2.941638    1.166544
H      -1.361997   -2.926961    2.380341
H      -1.824431   -0.364432    3.678027
H      -1.307641    0.954802    2.514058
H      -3.289361    0.580281    1.304047
