13

C       0.077299    1.455423    0.008913
C       0.021290    0.004827    0.001874
C      -0.048719   -1.200283   -0.003754
C      -0.119201   -2.641383   -0.010591
O      -1.155240   -3.260556   -0.003580
C       1.260214   -3.326599   -0.027817
C       1.187030   -4.782205   -0.034692
N       1.158620   -5.936164   -0.040433
H       1.110033    1.817835    0.002938
H      -0.434190    1.864145   -0.869109
H      -0.420861    1.855120    0.898669
H       1.813460   -2.975167   -0.907061
H       1.830788   -2.984308    0.843927
