13

O      -0.370348    0.379799   -0.708827
C      -0.009627    1.106654    0.176839
C       1.234623    1.957184    0.094026
O       2.195807    1.624861   -0.902926
C       1.473988    2.822187   -1.123604
C       0.538536    2.888242   -2.207173
C      -0.226361    3.006296   -3.125504
C       1.811962    2.470323    1.380757
O       1.187483    2.552418    2.406485
H      -0.555854    1.215580    1.132625
H       2.054918    3.730487   -0.955415
H      -0.908094    3.087559   -3.936736
H       2.879356    2.770578    1.295999
