16

O      -0.142079    0.015322    0.290665
C      -0.029565    1.217427    0.160082
C       1.223995    1.927709   -0.051953
C       2.483393    1.318917   -0.135613
N       3.352594    2.333870   -0.333577
C       4.706047    2.882377   -0.541006
C       4.022274    4.303852   -0.602369
C       2.721667    3.547074   -0.380587
C       1.376286    3.353431   -0.208891
H      -0.925474    1.879102    0.197303
H       2.755575    0.279448   -0.064866
H       5.379476    2.716330    0.303430
H       5.178418    2.543218   -1.466201
H       4.325506    4.985561    0.196013
H       4.125602    4.813422   -1.563490
H       0.582441    4.083466   -0.190164
