16

C      -0.070662    1.572464   -0.173152
C      -0.134974    0.054923   -0.244898
C      -0.159661   -0.757808    1.023750
C      -1.396470   -0.658723    0.164343
C       1.324167    2.069763    0.007583
N       1.787820    2.659694    1.072068
O       3.090025    2.908482    0.790846
N       3.370098    2.437583   -0.487855
N       2.316393    1.937687   -0.953745
H      -0.479923    2.009371   -1.091622
H      -0.672685    1.939865    0.662715
H       0.414039   -0.368915   -1.080306
H       0.382628   -1.696166    1.043537
H      -0.154104   -0.222685    1.967817
H      -2.222920   -0.059365    0.532327
H      -1.701134   -1.528042   -0.407246
