18

O       0.146695    1.377030   -0.145802
C       0.073109   -0.020587   -0.066024
C       0.334415   -0.573770    1.400341
O       0.417749    0.473291    2.353825
C      -1.098289   -1.161245    1.418638
C      -1.365841   -0.625397   -0.004881
C      -1.558790   -2.093594   -0.420482
C      -0.415793   -2.961588   -0.084434
N      -1.347018   -2.602231    1.004788
H      -0.076908    1.703041    0.737867
H       0.714923   -0.432009   -0.850863
H       1.160087   -1.284777    1.520389
H       1.315437    0.822956    2.332026
H      -1.693937   -0.898610    2.292125
H      -2.183112    0.054914   -0.238182
H      -2.389586   -2.451223   -1.020634
H      -0.501073   -4.010546   -0.352940
H       0.606071   -2.596591   -0.093345
