8

N       0.015133    1.261057    0.009279
N       1.220235    1.813242    0.000331
C       2.031966    0.754436   -0.013500
C       1.250405   -0.411794   -0.012279
N      -0.037479   -0.063497    0.002392
H      -0.821503    1.821749    0.020700
H       3.102921    0.876707   -0.023400
H       1.544433   -1.448841   -0.020946
