20

C      -0.037705    1.462786    0.110176
C      -0.056807   -0.063559   -0.090681
C       0.746919   -0.521541   -1.269593
N       0.170123   -0.776837   -2.446697
N       1.169770   -1.124932   -3.271489
C       0.876568   -1.579312   -4.610509
C       2.382843   -1.105586   -2.647718
C       2.151070   -0.713736   -1.343635
N       3.067586   -0.606524   -0.279686
H       0.981144    1.839221    0.257464
H      -0.450473    1.970788   -0.766378
H      -0.628583    1.752334    0.985244
H       0.318600   -0.555992    0.815351
H      -1.089669   -0.397610   -0.228883
H       1.657370   -1.243206   -5.298363
H       0.805325   -2.672461   -4.662447
H      -0.079075   -1.148289   -4.910050
H       3.291550   -1.367912   -3.166632
H       4.025779   -0.542915   -0.598916
H       2.874459    0.189235    0.315682
