15

O      -0.197128    0.354416   -0.707778
C       0.136252    1.103113    0.179152
C       1.383284    1.895025    0.179011
C       1.913178    2.876127    1.232400
C       2.834070    3.425190    0.106585
C       1.864785    2.771209   -0.959740
C       2.568462    1.445488   -0.714075
C       3.753063    2.219249   -0.207652
O       4.937838    2.059832   -0.233628
H      -0.506259    1.264846    1.073787
H       1.142604    3.596685    1.519832
H       2.403963    2.476371    2.126002
H       3.219193    4.440637    0.110225
H       1.368300    3.125948   -1.849415
H       2.493705    0.531231   -1.284947
