22

C      -0.215532    1.660856    0.049677
C      -0.521570    0.213981    0.440427
C       0.575780   -0.505068    1.206056
C       0.268574   -1.951764    1.561679
N       0.090761   -2.764282    0.362859
C       1.270936   -3.460833   -0.138675
C       0.176749   -4.207986    0.540936
C       1.984623   -0.082827    1.154908
O       1.170626    0.222994    2.291546
H       0.559574    1.719126   -0.721053
H      -1.110440    2.145218   -0.351294
H       0.120979    2.233813    0.918491
H      -1.420458    0.190381    1.071921
H      -0.759088   -0.389089   -0.442216
H       1.066875   -2.331616    2.222352
H      -0.669062   -1.986123    2.130947
H       1.378692   -3.497292   -1.218855
H       2.204672   -3.344029    0.409296
H       0.382774   -4.587074    1.540968
H      -0.530975   -4.799268   -0.033150
H       2.773394   -0.813712    1.331553
H       2.280559    0.773318    0.553379
