19

C       0.021152    1.609981    0.127734
C      -0.000101    0.069877    0.095680
C       0.698057   -0.555206    1.313843
O       2.068254   -0.161414    1.235143
C       2.875528   -0.578170    2.239518
C       4.280039   -0.084039    2.010972
N       2.416691   -1.280916    3.189725
C      -1.373562   -0.435531    0.013452
N      -2.459390   -0.826744   -0.043757
H       1.055294    1.953922    0.185120
H      -0.442408    2.025338   -0.769892
H      -0.522579    1.984678    0.999709
H       0.528963   -0.275264   -0.801399
H       0.256793   -0.200415    2.250621
H       0.621747   -1.646282    1.303640
H       4.292332    1.009035    1.961270
H       4.943918   -0.412900    2.811589
H       4.659832   -0.455908    1.054512
H       3.149285   -1.508658    3.857502
