19

C      -0.099146    1.586822    0.261943
C       0.020412    0.082261    0.148683
N       1.265965   -0.606849   -0.226225
C       2.475628    0.150340   -0.514551
C       0.798889   -0.709165    1.136092
C       1.464952   -0.242276    2.434452
O       1.092370   -1.475648    3.082833
C       0.494976   -2.006918    1.876701
H       0.732997    2.038154    0.807538
H      -0.148491    2.054280   -0.727528
H      -1.020449    1.844961    0.794704
H      -0.857673   -0.392103   -0.290977
H       2.643962    1.027150    0.128016
H       3.338932   -0.513964   -0.406253
H       2.444518    0.491553   -1.553862
H       2.554963   -0.112734    2.388692
H       1.023715    0.632945    2.928859
H      -0.564177   -2.256400    2.018001
H       1.030724   -2.886416    1.497335
