21

C       0.050110    1.563707    0.078735
C       0.010407    0.037010    0.051278
C       0.576244   -0.497153   -1.287591
O      -0.083827   -1.611652   -1.869263
C      -0.252812   -2.774518   -1.060818
C       1.003631   -3.210027   -0.354834
C       1.373015   -2.733654    0.834669
C       0.581410   -1.718452    1.634486
O       0.759480   -0.377925    1.192998
H       1.072582    1.921714   -0.081535
H      -0.589837    1.980267   -0.704293
H      -0.290497    1.932029    1.049141
H      -1.034396   -0.298683    0.151951
H       0.482385    0.280109   -2.051794
H       1.646847   -0.691318   -1.136647
H      -1.058479   -2.611435   -0.330900
H      -0.597393   -3.546236   -1.754838
H       1.663211   -3.888345   -0.890797
H       2.326762   -3.040359    1.257864
H      -0.488998   -1.972517    1.639969
H       0.920492   -1.724037    2.674361
