16

O      -0.261619    1.529991   -0.347192
C      -0.306322    0.142334   -0.192717
C      -0.400249   -0.628382    1.078188
C      -1.443623   -0.136279    2.086893
C      -2.200341    1.083251    1.713818
N      -2.568403   -0.212599    1.098439
C      -1.579175   -0.623725    0.035946
C      -1.992120   -1.704873   -0.877606
O      -1.254898   -2.248245   -1.668730
H       0.619435    1.823839   -0.088901
H       0.278719   -0.405646   -0.934372
H       0.249813   -1.470326    1.282776
H      -1.543600   -0.611214    3.057065
H      -2.956153    1.399083    2.428190
H      -1.758174    1.862623    1.112612
H      -3.057726   -1.995683   -0.763353
