20

C       0.071978    1.425519   -0.394454
N       0.033116    0.002909   -0.070764
C      -1.156702   -0.442129    0.751197
C      -0.906702   -1.962264    0.788426
C       0.631259   -1.932499    1.103884
C       0.819109   -0.403891    1.156461
C      -0.391637    0.023128    1.998164
C      -0.609038    1.096263    2.956844
O      -0.662521   -0.290416    3.348419
H       1.055047    1.664325   -0.813495
H      -0.674965    1.630834   -1.168386
H      -0.113901    2.111634    0.446913
H      -2.143349   -0.073018    0.470946
H      -1.490263   -2.454373    1.569952
H      -1.128367   -2.426084   -0.174121
H       0.878021   -2.408544    2.055718
H       1.230878   -2.380422    0.309791
H       1.821987    0.003725    1.284287
H       0.237310    1.656981    3.352047
H      -1.562801    1.622148    2.982826
