17

C      -0.004531    1.586452    0.039700
C      -0.004606    0.056712   -0.005302
C       0.711765   -0.563230    1.193920
C       0.725676   -2.073268    1.172889
O       0.230468   -2.756363    0.309845
C       1.440400   -2.751750    2.369220
O       1.946193   -2.090753    3.249990
C       1.455991   -4.196808    2.352689
C       1.481394   -5.400072    2.360195
H       1.015826    1.985684    0.042979
H      -0.522533    2.004969   -0.828323
H      -0.507044    1.959399    0.939099
H      -1.032679   -0.320007   -0.042154
H       0.471715   -0.294057   -0.927406
H       1.753390   -0.221215    1.267565
H       0.261953   -0.247055    2.145254
H       1.501624   -6.463168    2.364333
