17

O      -0.003148    1.448408   -0.125751
C       0.077929    0.050890    0.093195
C      -1.302386   -0.555838    0.060042
C      -2.277024   -0.428256    1.251594
N      -2.769778   -1.818301    0.997267
C      -1.725452   -2.045288   -0.033262
C      -2.228245   -1.682283   -1.438545
O      -1.943522   -0.273654   -1.213154
H      -0.515756    1.557896   -0.936619
H       0.711579   -0.441244   -0.662500
H       0.546651   -0.094581    1.072174
H      -1.757061   -0.301575    2.209461
H      -3.047471    0.341641    1.153959
H      -2.674757   -2.427395    1.800534
H      -1.069922   -2.908234    0.094641
H      -1.625014   -2.078343   -2.265505
H      -3.291323   -1.866966   -1.619788
