19

C      -0.203100    1.443918    0.173225
C      -0.122688   -0.007134    0.079283
C      -0.018759   -1.206157   -0.001527
C       0.058764   -2.671624   -0.086813
O       0.779549   -3.255743    0.987280
C      -0.123916   -3.577636    2.061863
C      -1.551036   -3.364112    1.535177
C      -1.358587   -3.304456    0.007215
O      -2.361857   -2.638191   -0.712301
H       0.756555    1.868596    0.487018
H      -0.462865    1.889110   -0.793264
H      -0.959906    1.758379    0.899901
H       0.568765   -2.957832   -1.012413
H       0.065542   -4.618984    2.345049
H       0.097624   -2.945384    2.929802
H      -2.242398   -4.151922    1.840150
H      -1.958907   -2.406252    1.873510
H      -1.303838   -4.315740   -0.407563
H      -2.257864   -1.693984   -0.531630
