15

O      -0.069058   -0.017823   -0.124666
C      -0.008751    1.172542   -0.173884
O       1.112898    1.860239    0.121425
C       1.084032    3.284109    0.042335
C       1.585054    4.062178    1.281736
N       2.614769    4.794599    0.460395
C       3.510274    3.744143   -0.045776
C       2.216888    3.928442   -0.734036
H      -0.851504    1.831577   -0.462565
H       0.095903    3.615662   -0.291377
H       0.852385    4.757436    1.694580
H       2.008680    3.450820    2.083650
H       4.387642    4.140135   -0.546814
H       3.684878    2.854950    0.555177
H       2.137421    4.332641   -1.737385
