19

O      -0.174033    1.576868   -0.154972
C       0.084141    0.202478    0.122083
C      -1.247914   -0.510825    0.010570
C      -1.949862   -0.809821   -1.337346
C      -0.943062   -1.648805   -2.148103
C      -0.557335   -2.649528   -1.006416
O       0.802611   -2.649677   -0.606650
C      -1.450291   -2.043057    0.097107
O      -2.696521   -1.869169   -0.643100
H       0.660527    2.051646   -0.104017
H       0.825460   -0.215852   -0.566438
H       0.479547    0.066084    1.141584
H      -1.972670   -0.031736    0.673433
H      -2.575937   -0.083613   -1.853690
H      -1.428777   -2.136710   -2.995745
H      -0.080481   -1.081399   -2.508451
H      -0.894605   -3.668135   -1.232560
H       1.319855   -3.074068   -1.297451
H      -1.547539   -2.586870    1.036423
