17

C       0.022878    1.452271   -0.094259
C       0.018645   -0.037266   -0.007692
O       0.588816   -0.820038   -1.102030
C       0.110396   -1.817698   -0.163738
C       0.519084   -1.018578    1.106900
C      -0.882441   -1.149053    1.733661
C      -1.198926   -1.033640    0.221218
C      -2.458109   -1.032532   -0.452406
C      -3.522279   -1.017830   -1.014534
H       1.046971    1.825699   -0.190366
H      -0.552919    1.782930   -0.963702
H      -0.424140    1.886995    0.805063
H       0.228915   -2.872833   -0.406812
H       1.500570   -1.012220    1.578320
H      -1.124365   -2.107262    2.200170
H      -1.223306   -0.321427    2.361053
H      -4.458258   -1.009588   -1.515906
