18

C      -0.035736    1.482971   -0.080278
C       0.087768   -0.027714    0.021058
O       1.160258   -0.586230    0.105896
C      -1.191744   -0.800679    0.002388
C      -2.163177   -0.788362    1.229743
C      -2.626553   -2.149326    0.717874
C      -1.378876   -2.361944   -0.051450
N      -2.657828   -2.146249   -0.787263
C      -2.201960   -0.774202   -1.171957
H       0.950746    1.939395    0.008879
H      -0.480677    1.761830   -1.042638
H      -0.698145    1.872119    0.700898
H      -1.621803   -0.894676    2.173216
H      -2.880460    0.036860    1.296046
H      -3.263334   -2.874145    1.206698
H      -0.710632   -3.199145   -0.192970
H      -2.976211    0.002215   -1.173567
H      -1.724471   -0.832518   -2.153259
