16

O      -0.057549    1.391822    0.037851
C      -0.047410   -0.003039    0.059117
C      -0.447967   -0.807928    1.259362
C      -1.516461   -0.053756    2.059323
C      -2.448659   -0.069061    0.795068
O      -3.514758   -0.993035    0.907875
C      -2.970331    1.227499    0.330286
N      -3.458699    2.226408    0.014912
C      -1.335716   -0.748566   -0.009248
H       0.708163    1.710526    0.527620
H       0.739160   -0.462494   -0.540904
H       0.148256   -1.630347    1.634620
H      -1.975941   -0.654512    2.845045
H      -1.229420    0.925526    2.448308
H      -4.210202   -0.588711    1.439912
H      -1.555562   -1.497266   -0.759709
