20

C      -0.038789    1.524023    0.135547
C      -0.119398    0.016927   -0.119805
C       0.762120   -0.467146   -1.299003
C       0.882319   -1.995298   -1.299078
C       1.727158   -2.501548   -2.463709
N       2.332606   -3.705778   -2.272205
O       1.830358   -1.876529   -3.504004
C       0.153124    0.045972   -2.598161
O       0.358557    1.140338   -3.055015
H       0.977070    1.817264    0.420855
H      -0.305823    2.095712   -0.756512
H      -0.712684    1.814603    0.947258
H       0.185592   -0.526556    0.783266
H      -1.161498   -0.277403   -0.308883
H       1.755146   -0.013509   -1.209263
H       1.284152   -2.346778   -0.342372
H      -0.115542   -2.447078   -1.395907
H       2.259535   -4.216927   -1.410842
H       2.871564   -4.097406   -3.027217
H      -0.592323   -0.641164   -3.060407
