20

C      -0.130345    1.512938    0.089309
C       0.143270    0.042199    0.022487
C       0.680566   -0.742938   -1.184119
C       1.360737   -1.743460   -0.182798
O       2.773711   -1.706322   -0.171608
C       0.810148   -0.899349    0.975956
C       1.464014   -0.684723    2.304310
O       1.266033   -1.763004    3.213076
N      -0.662318   -0.944603    0.787725
H       0.707470    2.089134   -0.317419
H      -1.025435    1.770885   -0.489449
H      -0.296703    1.841273    1.121015
H      -0.071553   -1.144344   -1.868340
H       1.447387   -0.192340   -1.735798
H       0.980112   -2.772653   -0.218637
H       3.092726   -2.121227   -0.979216
H       2.533548   -0.487832    2.147179
H       1.031900    0.196505    2.792252
H       1.711539   -2.533231    2.845566
H      -1.074724   -0.456925    1.584298
