21

C       0.683908    1.337007    0.219620
C       0.011976    0.004011    0.030010
C       0.074751   -0.666351   -1.123087
C      -0.606939   -1.980578   -1.392761
C      -1.004560   -2.736523   -0.137761
O      -2.006956   -3.702080   -0.330005
C       0.026763   -3.007879    0.930349
C      -1.084554   -1.996818    1.161095
C      -0.769792   -0.514057    1.216029
H       1.423067    1.297018    1.030326
H       1.192021    1.668110   -0.690008
H      -0.042967    2.109673    0.502962
H       0.631138   -0.236217   -1.953263
H      -1.522648   -1.811382   -1.978209
H       0.035718   -2.611573   -2.025132
H      -1.621910   -4.426686   -0.835821
H      -0.048407   -3.953123    1.456103
H       1.035337   -2.635606    0.780937
H      -1.876345   -2.329011    1.825015
H      -0.223186   -0.283846    2.142166
H      -1.709592    0.054139    1.288569
