20

C       0.201052    1.548287    0.078004
C       0.108856    0.035795   -0.025447
C       0.839971   -0.582232   -1.243669
C       1.293565   -1.951449   -0.723326
C       2.801269   -2.237178   -0.546322
N       3.378425   -1.037534    0.095989
C       2.712898   -2.062504    0.932937
C       1.194790   -1.818564    0.831333
O       0.714564   -0.537811    1.143264
H       1.249995    1.855967    0.118425
H      -0.274114    2.020366   -0.788062
H      -0.300757    1.905165    0.981919
H      -0.952788   -0.264500   -0.052644
H       0.181709   -0.646221   -2.114013
H       1.705343    0.033542   -1.499126
H       0.739516   -2.796424   -1.134076
H       3.416342   -2.911699   -1.129009
H       4.381801   -1.193142    0.183787
H       3.250289   -2.558049    1.731858
H       0.613631   -2.606659    1.326274
