21

C      -0.573371    1.360060   -0.158896
C       0.143637    0.013916   -0.188999
C       1.381383   -0.050961   -1.118278
C       2.262871   -1.071386   -0.441649
C       1.846174   -1.349185    0.792256
C       0.628781   -0.551273    1.172143
C       0.774509    0.356352    2.431761
C      -0.280641   -0.567181    3.060474
O      -0.413083   -1.322592    1.840927
H       0.097159    2.171846    0.144750
H      -0.962745    1.613139   -1.150547
H      -1.422094    1.341529    0.532885
H      -0.567598   -0.746745   -0.534893
H       1.122692   -0.322709   -2.148401
H       1.887946    0.923653   -1.177608
H       3.143117   -1.492585   -0.915847
H       2.319244   -2.029204    1.492302
H       1.762010    0.339696    2.895871
H       0.462321    1.392023    2.293922
H       0.074384   -1.188684    3.892611
H      -1.226378   -0.095912    3.354496
