16

C       0.304060    1.472232   -0.057142
C       0.030664    0.006873   -0.031336
C      -0.371372   -0.820390   -1.027171
O      -0.488643   -2.086799   -0.520461
C      -0.139606   -1.958339    0.780991
N       0.176843   -0.750778    1.129984
C      -0.161519   -3.150717    1.642478
C      -1.027332   -4.308746    1.361674
O       0.369544   -4.363654    1.093565
H       1.338176    1.680367    0.236322
H       0.139195    1.885612   -1.055328
H      -0.345087    2.002369    0.647548
H      -0.597670   -0.698557   -2.072389
H       0.129776   -2.934116    2.667209
H      -1.374952   -4.921332    2.192385
H      -1.670425   -4.287636    0.484290
