16

C       0.122283    1.324668    0.042512
O      -0.414633    0.076191   -0.403300
C       0.350447   -0.617818   -1.256842
C       0.668632   -1.940733   -1.281887
C       0.292009   -2.972878   -0.266585
C       1.433152   -2.108256   -2.492920
C       1.520576   -0.891324   -3.081074
O       0.851918    0.043164   -2.336438
H       1.089556    1.177271    0.537649
H       0.244151    2.021808   -0.791679
H      -0.598712    1.727389    0.755257
H      -0.363920   -3.741956   -0.691326
H       1.173557   -3.486923    0.133465
H      -0.237589   -2.509116    0.569490
H       1.864465   -3.027432   -2.859822
H       1.998266   -0.520427   -3.971890
