14

C      -0.033938    1.494451   -0.014594
C      -0.004673    0.003696   -0.053007
N      -0.025546   -0.632843   -1.182546
C       0.004413   -2.000407   -1.133416
O      -0.019587   -2.587625   -2.341359
N       0.051949   -2.748919   -0.073747
N       0.072703   -2.062250    1.097609
C       0.048802   -0.697202    1.255554
O       0.071268   -0.147144    2.344735
H       0.852392    1.870214    0.508234
H      -0.079594    1.900643   -1.024657
H      -0.892664    1.834592    0.574219
H       0.004722   -3.542806   -2.195765
H       0.110000   -2.633922    1.930630
