13

O       0.546228    1.032704   -0.583981
C      -0.001123   -0.110366    0.018982
C       0.139460   -0.343104    1.547771
C      -1.268638   -0.998765    1.516327
C      -1.538447   -0.264182    0.174235
H       0.203324    1.804339   -0.120712
H       0.412966   -0.958580   -0.535604
H       0.988907   -0.927196    1.909219
H       0.117865    0.613230    2.083561
H      -1.208288   -2.081911    1.380367
H      -1.941436   -0.791197    2.350141
H      -2.004957    0.713079    0.345815
H      -2.091603   -0.782302   -0.612492
