17

O      -0.182496    1.345918    0.071979
C      -0.004073   -0.016757    0.032999
C      -0.225220   -0.842335   -1.249746
C       0.468012   -2.188131   -1.059495
C       0.031779   -2.072255    0.426280
C      -1.089320   -1.047331   -0.014829
C       0.851877   -0.858296    0.994358
C       2.300720   -0.841683    0.900067
C       3.500264   -0.809245    0.807889
H       0.548274    1.760736   -0.400722
H      -0.505891   -0.335804   -2.164770
H      -0.071598   -2.991100   -1.569573
H       1.540545   -2.269831   -1.262323
H      -0.111542   -2.951013    1.049837
H      -2.153949   -0.987456    0.153107
H       0.529294   -0.652760    2.020457
H       4.559419   -0.787615    0.734205
