21

C       0.222069    1.337121   -0.251117
O       0.076163   -0.028280    0.051581
C      -1.226606   -0.512008   -0.210097
C      -1.271962   -1.980346    0.179118
C      -0.994748   -2.263609    1.678160
C      -1.913057   -3.421350    1.983092
C      -2.767953   -3.672455    0.990726
C      -2.633472   -2.672810   -0.132837
O      -3.758210   -1.785670   -0.180777
H       1.252238    1.618152   -0.017749
H       0.030387    1.543526   -1.316345
H      -0.460832    1.964714    0.344152
H      -1.971778    0.063141    0.363142
H      -1.480863   -0.384694   -1.275379
H      -0.504615   -2.500922   -0.404662
H       0.058136   -2.499290    1.862319
H      -1.222044   -1.397321    2.315456
H      -1.869599   -3.967930    2.919802
H      -3.537439   -4.436345    0.988954
H      -2.620149   -3.132523   -1.126275
H      -3.983361   -1.562362    0.729243
