17

O       0.009477    0.042113    0.421348
C       0.007529    1.187797    0.060430
O      -1.169555    1.825484   -0.199623
C      -1.055870    3.199058   -0.627149
C      -0.159091    3.261352   -1.875930
C       1.215314    3.060945   -1.260167
C       1.143779    3.513098    0.173498
C      -0.274466    3.990527    0.436129
C       1.224801    2.022735   -0.142331
H      -2.078535    3.538889   -0.785373
H      -0.438397    2.497268   -2.606668
H      -0.235202    4.244551   -2.353017
H       2.112245    3.168888   -1.857038
H       1.985687    3.968809    0.679374
H      -0.365365    5.067147    0.255260
H      -0.640517    3.774669    1.443714
H       2.150568    1.503530    0.067560
