19

C       0.090464    1.625155   -0.155329
C       0.029470    0.095941   -0.034699
C       0.646092   -0.649053   -1.203090
C       1.458104   -1.641316   -0.838634
C       1.592126   -1.765272    0.655754
C       2.922799   -1.198606    1.250422
C       2.159679    0.100688    1.562148
O       2.496971    1.181774    1.950708
C       0.797184   -0.512980    1.169164
H       1.118583    1.979545   -0.261364
H      -0.479832    1.959470   -1.028357
H      -0.335175    2.106615    0.730046
H      -1.031239   -0.184845    0.045373
H       0.414287   -0.381309   -2.229375
H       1.987312   -2.296462   -1.522961
H       1.303166   -2.746937    1.039630
H       3.258703   -1.700473    2.164464
H       3.775645   -1.098566    0.573259
H       0.165976   -0.661896    2.049695
