19

O      -0.175286    0.078006   -0.242238
C       0.022127    1.212101    0.117761
C       1.329397    1.906658    0.044529
C       1.267922    3.409539   -0.217264
C       1.608563    2.913246    1.158033
C       3.025223    3.503161    1.321999
C       2.765162    4.959882    0.790732
C       2.559045    4.182352   -0.560145
C       3.705446    3.264797   -0.053847
H      -0.804154    1.830032    0.545435
H       2.115211    1.290239   -0.372532
H       0.309043    3.854368   -0.459262
H       0.915759    2.970401    1.990282
H       3.542488    3.307325    2.260586
H       1.907991    5.502269    1.198765
H       3.658242    5.590340    0.797037
H       2.603477    4.675411   -1.530598
H       4.670098    3.772321   -0.109636
H       3.810179    2.252933   -0.444923
