17

C      -0.066918    1.455950    0.279199
C       1.237573    0.778190    0.081785
C       1.983445    0.319879    1.335658
N       2.217219    1.396342    2.316322
C       1.424327    1.159650    3.276649
O       0.631374    0.058959    3.251127
C       0.998294   -0.658151    2.043279
C      -0.170184   -0.882704    1.066209
N      -0.029854    0.033366   -0.080816
H      -0.353031    1.733795    1.290282
H      -0.458623    2.110257   -0.494244
H       1.815465    0.955833   -0.819641
H       2.934972   -0.142898    1.064253
H       1.298315    1.780000    4.157458
H       1.448344   -1.600174    2.365391
H      -0.129136   -1.906160    0.679467
H      -1.137034   -0.750704    1.560516
