17

O      -0.320759    0.831712    0.963347
C       0.036358    1.193029   -0.127498
C       1.424218    1.733739   -0.435141
C       1.376897    2.906540   -1.361801
O       0.992255    2.691604   -2.724491
C       1.463092    4.045792   -2.983793
C       0.406719    4.938737   -2.284029
C       0.963662    4.348634   -0.988772
C       2.306155    4.034007   -1.652387
H      -0.642959    1.146280   -1.006338
H       1.918280    1.992342    0.505546
H       2.001794    0.927880   -0.910489
H       1.803467    4.198361   -4.005292
H       0.648870    6.000601   -2.375449
H      -0.638084    4.754799   -2.552427
H       0.781021    4.652787    0.034145
H       3.332503    4.251700   -1.391744
