23

C      -1.468398    0.238830    1.928431
O      -1.263972   -0.523185    0.759092
C       0.090407   -0.761237    0.340300
C       0.815894    0.565429    0.053969
C       0.880549   -1.580667    1.370995
C      -0.051231   -1.520633   -0.992053
O       0.462021   -2.852832   -1.092854
C      -0.950168   -2.657641   -1.249818
C      -1.878327   -3.305386   -0.255964
H      -1.015732   -0.217663    2.819451
H      -1.093282    1.267547    1.837380
H      -2.550380    0.282796    2.078879
H       1.003200    1.133752    0.968660
H       1.784340    0.367889   -0.415676
H       0.223203    1.185275   -0.626103
H       0.366297   -2.507700    1.627769
H       1.857051   -1.849931    0.961350
H       1.045495   -1.002775    2.284797
H       0.195528   -0.905662   -1.859908
H      -1.277152   -2.767576   -2.287239
H      -1.566100   -3.138634    0.773556
H      -2.885530   -2.892759   -0.371506
H      -1.929366   -4.383481   -0.444107
