17

O      -0.054877    1.368604   -0.030724
C       0.024372   -0.031824   -0.028323
C      -0.453524   -0.682565    1.258844
C      -1.337556   -0.654943    0.021803
C      -1.369191   -2.208521    0.013782
O      -2.568528   -2.873454   -0.172396
C      -0.060778   -2.922804   -0.011262
O       1.022085   -2.619216   -0.848586
C      -0.479735   -2.231396    1.270940
H       0.720179    1.705188    0.431032
H       0.821896   -0.456515   -0.626631
H      -0.573659   -0.091113    2.157197
H      -2.233958   -0.070782   -0.136890
H      -2.689496   -3.014389   -1.119177
H      -0.245837   -3.996562    0.080364
H       1.829034   -2.862684   -0.380929
H      -0.600656   -2.798844    2.186111
