20

C      -0.297088    1.340511   -0.026262
O      -0.174153   -0.059642   -0.086570
C       0.797333   -0.483958   -1.018402
C       0.830970   -1.990063   -0.997859
O       0.001542   -2.695056   -1.928389
C       1.427878   -2.834986   -2.048162
C       2.040691   -2.248361   -3.303654
C       1.955845   -4.203096   -1.666987
H       0.648998    1.822468    0.269628
H      -0.609180    1.766557   -0.993071
H      -1.059222    1.569775    0.722284
H       0.554399   -0.117729   -2.026597
H       1.790581   -0.083135   -0.745087
H       0.803133   -2.393254    0.016377
H       1.585298   -1.294556   -3.573529
H       3.118182   -2.098040   -3.174836
H       1.900817   -2.937846   -4.143421
H       1.791590   -4.915387   -2.483085
H       3.032389   -4.165694   -1.467546
H       1.448029   -4.580822   -0.776528
