19

C       0.009556    1.582662   -0.091628
C       0.032229    0.058021    0.113637
C      -1.327208   -0.573610    0.059651
C      -2.162916   -0.843059   -1.014978
C      -2.668462   -0.971730   -2.449628
C      -3.958799   -1.620252   -1.799122
N      -3.281423   -1.389550   -0.516856
N      -3.316729   -1.539773    0.810026
C      -2.119200   -1.031485    1.154855
H       1.019135    2.002928   -0.035706
H      -0.410058    1.840499   -1.069523
H      -0.606593    2.069253    0.670763
H       0.687037   -0.395185   -0.640989
H       0.488729   -0.168068    1.084087
H      -2.852546   -0.035019   -2.980815
H      -2.103778   -1.647206   -3.096517
H      -4.887999   -1.057686   -1.920967
H      -4.125115   -2.675323   -2.031418
H      -1.841451   -1.006791    2.200036
