12

O       0.239980    0.159340    0.863239
C       0.193774    1.097679    0.107968
C       1.279367    2.116204   -0.032932
C       1.673272    2.870114    1.232760
N       2.551944    1.921300    0.623596
C       2.993186    0.750603    1.251130
O       3.368570    0.710757    2.392408
H      -0.689592    1.280416   -0.540899
H       1.301385    2.650343   -0.980491
H       1.945359    3.918021    1.147178
H       1.184693    2.571866    2.156957
H       3.054608   -0.095091    0.545987
