19

C      -0.171223    1.603243    0.334282
C      -0.347554    0.116386    0.632016
C      -1.295311   -0.582517   -0.327514
O      -1.805923    0.004543   -1.261498
C      -1.608683   -2.041804   -0.089038
C      -0.659829   -2.888858    0.731010
C      -3.082656   -2.334894   -0.071395
N      -2.268216   -2.723065   -1.216386
H       0.523406    2.058508    1.045518
H       0.216053    1.754694   -0.676155
H      -1.126707    2.130251    0.396649
H       0.615526   -0.410856    0.597465
H      -0.718505   -0.045515    1.653435
H      -0.561585   -2.517819    1.756025
H      -1.032017   -3.914944    0.773051
H       0.338802   -2.918865    0.281848
H      -3.438451   -3.151998    0.551257
H      -3.763642   -1.495244   -0.178630
H      -2.397052   -2.022747   -1.948105
