21

C      -0.128721    1.234337    0.567818
C      -0.377347    0.587893   -0.800521
C      -1.586852   -0.329398   -0.773374
O      -1.936514   -0.941912   -2.053897
C      -2.146627   -2.207638   -1.417629
C      -0.848125   -2.770554   -0.902892
C       0.474471   -2.651898   -1.630238
C      -1.592614   -1.708115   -0.104304
O      -2.060400   -1.922264    1.180084
H       0.733475    1.906249    0.533636
H      -0.995502    1.817564    0.896447
H       0.069217    0.479524    1.336676
H      -0.558054    1.366173   -1.552499
H       0.510640    0.038619   -1.123644
H      -2.462543    0.227393   -0.407558
H      -3.032420   -2.772315   -1.683679
H      -1.021897   -3.733772   -0.422610
H       0.450023   -1.821091   -2.337788
H       1.314057   -2.501673   -0.942764
H       0.672611   -3.566639   -2.199081
H      -1.305503   -2.090518    1.753808
