15

O       0.231792    1.270495   -0.151313
C       0.027702   -0.116869   -0.040265
C      -1.474603   -0.488769    0.094404
C      -2.198176   -0.002457   -1.082029
N      -2.733314    0.414368   -2.018000
C      -1.642358   -1.985926    0.313284
C      -2.706709   -2.792584   -0.293254
O      -1.366764   -2.828367   -0.799063
H      -0.093646    1.556270   -1.012506
H       0.453169   -0.676191   -0.883846
H       0.540575   -0.436349    0.872190
H      -1.870674    0.041214    0.969984
H      -1.210181   -2.325866    1.255978
H      -3.038473   -3.699146    0.209412
H      -3.435027   -2.318754   -0.947442
