21

C      -0.035435    1.530484    0.043894
C      -0.018052    0.014407    0.048006
C      -1.401526   -0.655693   -0.034649
C      -1.163229   -2.134356    0.377270
C       0.249032   -2.135545    0.961164
C       1.418357   -1.625580    0.129399
C       0.744001   -0.739818    1.177650
C       0.969161   -0.677191   -0.969899
O       0.501000   -1.163369   -2.209571
H       0.975046    1.942057    0.139577
H      -0.462998    1.912089   -0.890217
H      -0.636956    1.925159    0.871093
H      -2.092451   -0.167948    0.661734
H      -1.824351   -0.558877   -1.039377
H      -1.886974   -2.460112    1.131200
H      -1.268871   -2.831214   -0.463807
H       0.517826   -2.900447    1.682169
H       2.384569   -2.115569    0.182521
H       1.149377   -0.327356    2.091779
H       1.773972    0.021870   -1.218420
H      -0.012067   -1.960120   -2.046105
