17

C       0.198881    1.228681    0.379567
C       1.486601    1.880859   -0.187268
C       2.171929    0.748094   -0.964835
C       3.103276   -0.230975   -0.224945
N       2.419492   -0.599086    1.034709
C       2.062653   -1.301231   -0.223829
C       1.097084   -0.386909   -1.013550
O      -0.086190    0.075058   -0.423623
H       0.347741    0.930466    1.420797
H      -0.673453    1.887843    0.315395
H       1.237258    2.701967   -0.865569
H       2.111117    2.280242    0.615217
H       2.556287    1.050663   -1.939338
H       4.178971   -0.312747   -0.318505
H       3.042890   -1.219951    1.549312
H       2.165351   -2.377196   -0.298084
H       0.869506   -0.791362   -2.003774
