17

C       0.018764    1.550877    0.035969
C       1.554381    1.968207    0.030744
C       2.126430    0.576518   -0.007453
O       3.334731   -0.161325   -0.382944
C       2.289732   -1.209215   -0.127221
C       1.831405   -0.431810    1.133133
O       0.438313   -0.470682    1.332605
C      -0.012688   -0.014643    0.032876
C       1.205545   -0.354063   -0.831601
H      -0.511288    1.933411    0.910601
H      -0.480876    1.936297   -0.858284
H       1.808271    2.556717   -0.854745
H       1.831676    2.540985    0.918950
H       2.600348   -2.241783   -0.280683
H       2.406404   -0.452905    2.056046
H      -0.990032   -0.445987   -0.184270
H       1.181804   -0.253319   -1.914556
