20

C      -0.002955    1.539034   -0.037551
N      -0.033921    0.078400    0.040397
C      -1.194036   -0.702088    0.521682
C      -0.195124   -1.904378    0.583883
C       0.738197   -0.723986    1.012851
C       0.119372   -0.419148    2.421937
C       0.742671   -0.899470    3.697302
O      -0.625867    0.811281    2.457276
C      -1.297321   -0.391711    2.049830
H       0.784703    1.955548    0.596553
H       0.191919    1.843081   -1.074370
H      -0.943636    1.991202    0.287333
H      -2.103989   -0.706502   -0.079496
H      -0.392165   -2.689260    1.318443
H       0.048823   -2.312228   -0.396648
H       1.824910   -0.753243    0.915961
H       1.668435   -0.352319    3.908864
H       0.063348   -0.755247    4.541433
H       0.994827   -1.963288    3.628947
H      -2.120119   -0.727596    2.673506
