21

O      -0.023156    1.423944    0.107485
C      -0.019145    0.040059    0.023572
C      -0.916598   -0.748242   -0.940469
C      -1.185561   -1.784150    0.201692
C      -0.304180   -0.956308    1.145606
C       1.099328   -0.798012    0.583208
C       1.872715   -1.851528   -0.146939
C       3.315258   -1.603678   -0.522938
C       2.978099   -2.601492    0.556986
H       0.699750    1.761496   -0.432396
H      -1.814897   -0.179868   -1.190890
H      -0.460603   -1.113283   -1.867031
H      -2.234212   -1.801754    0.505139
H      -0.862383   -2.813015    0.016699
H      -0.508062   -0.769197    2.193147
H       1.715265   -0.202555    1.257107
H       1.300162   -2.431404   -0.863205
H       3.673924   -1.974627   -1.476938
H       3.762442   -0.662286   -0.219143
H       3.195517   -2.328618    1.584661
H       3.105418   -3.657140    0.343467
