17

C      -0.061860    1.514880    0.025048
C       0.030007    0.019660    0.029100
C       0.001909   -0.889493   -1.190099
O       0.978704   -1.891634   -1.137108
C       1.034618   -2.128069    0.241937
C       0.787926   -0.854926    1.054733
C      -0.293167   -1.934783    0.918184
O      -0.822252   -2.851995    1.794245
C      -1.050502   -1.055266   -0.106728
H       0.925383    1.971771   -0.112621
H      -0.705708    1.864455   -0.788975
H      -0.479201    1.898145    0.963266
H      -0.221140   -0.535678   -2.188562
H       1.735701   -2.889621    0.554838
H       1.405800   -0.524062    1.878561
H      -1.340430   -2.378468    2.454765
H      -2.120558   -0.976143   -0.246589
