22

C       0.010927    1.509112   -0.176442
C      -0.046205   -0.003791    0.023607
C      -1.482599   -0.523433    0.075271
O      -2.449637    0.223569    0.045301
N      -1.633517   -1.876222    0.159913
C      -0.569405   -2.881208    0.185564
C      -1.313215   -4.180512    0.532397
C      -2.705415   -3.962266   -0.083268
C      -2.973455   -2.474160    0.176038
H       1.048035    1.856962   -0.188999
H      -0.464185    1.795362   -1.117975
H      -0.524029    2.025395    0.623616
H       0.497145   -0.523787   -0.775919
H       0.462011   -0.288154    0.954889
H      -0.073909   -2.962270   -0.793188
H       0.201287   -2.634828    0.922712
H      -0.800553   -5.067176    0.152501
H      -1.395068   -4.281471    1.620162
H      -2.673964   -4.156580   -1.161147
H      -3.473088   -4.607898    0.348861
H      -3.453904   -2.310652    1.149699
H      -3.606142   -1.998900   -0.577030
