21

C      -0.055218    1.627332    0.099087
C      -0.021659    0.096179    0.028903
C       0.704844   -0.441199   -1.222713
C       2.157805    0.008019   -1.177179
O       2.694435    0.707156   -1.996157
C       0.659880   -1.991222   -1.336105
C      -0.771569   -2.554293   -1.419927
C       1.406563   -2.438994   -2.584780
O       2.334314   -3.204466   -2.594425
H       0.950722    2.057758    0.125562
H      -0.568327    2.049690   -0.771165
H      -0.584943    1.961243    0.995950
H       0.466234   -0.309082    0.925715
H      -1.046464   -0.285861    0.039640
H       0.261513    0.001289   -2.123633
H       2.717134   -0.368858   -0.287384
H       1.180392   -2.437426   -0.480629
H      -1.315981   -2.127438   -2.269613
H      -0.745602   -3.640790   -1.546729
H      -1.340307   -2.341648   -0.512356
H       1.004555   -2.008097   -3.532249
