17

O      -0.122266    1.448303   -0.006635
C       0.022757    0.030905    0.110963
C      -1.386154   -0.536008    0.094048
O      -2.113300   -0.030860   -1.005309
C      -1.601563   -2.039442    0.210716
C      -1.653104   -2.315591    1.722848
O      -1.376920   -1.092443    2.413889
C      -2.223528   -0.452151    1.416837
C      -2.874870   -1.831050    1.034596
H       0.746740    1.840566   -0.124597
H       0.590036   -0.380254   -0.737308
H       0.520056   -0.247462    1.047097
H      -1.851314    0.897117   -1.074609
H      -1.394949   -2.801526   -0.529816
H      -1.390262   -3.257056    2.186534
H      -2.699591    0.467045    1.749972
H      -3.884514   -2.199227    0.930368
