17

O       0.053566    1.389702    0.178416
C      -0.067674    0.001121    0.085148
C      -1.460348   -0.639792    0.044728
C      -2.219287   -0.177956   -1.161485
C      -1.167031   -1.235447   -1.341505
C       0.224506   -0.599960   -1.363667
O       0.359235    0.413892   -2.359326
C       1.328268   -1.542047   -1.407118
C       2.262941   -2.298158   -1.443219
H      -0.002465    1.721271   -0.729175
H       0.571386   -0.456486    0.844080
H      -1.946477   -1.113700    0.887817
H      -3.238855   -0.541485   -1.234536
H      -2.076392    0.819151   -1.563834
H      -1.386055   -2.222402   -1.726814
H       1.300396    0.549503   -2.516330
H       3.082993   -2.972668   -1.473828
