19

C       0.019478    1.593476    0.097131
C       1.304013    0.799606   -0.007707
C       2.205000    0.680697    1.161208
C       1.939236   -0.069251    2.232772
C       0.696139   -0.883637    2.390705
C      -0.393726   -0.307615    3.331409
O      -1.257534   -0.008943    2.219504
C      -0.384760   -0.699710    1.287604
C      -0.037026    0.089231    0.043654
H      -0.211936    2.055751    1.049345
H      -0.315442    2.144278   -0.774925
H       1.802162    0.832263   -0.972635
H       3.133543    1.245089    1.119460
H       2.651135   -0.107260    3.054405
H       0.947590   -1.926698    2.608064
H      -0.840329   -1.042588    4.014609
H      -0.123636    0.592398    3.895991
H      -0.836549   -1.655410    0.992162
H      -0.382139   -0.346898   -0.887540
