19

C       0.105962    1.295840   -0.244647
O      -0.041894    0.026695    0.351943
C      -1.332180   -0.494671    0.226564
C      -1.627049   -1.240654   -1.111788
O      -0.759146   -2.316868   -0.612562
C      -1.373930   -1.969414    0.679008
C      -2.828368   -2.431304    0.464402
C      -3.918799   -1.420722    0.203454
C      -3.027161   -1.859706   -0.933953
H       1.127173    1.627794   -0.044869
H      -0.047536    1.262891   -1.333448
H      -0.596627    2.030447    0.180354
H      -2.063887    0.223827    0.612382
H      -1.339158   -0.860681   -2.091528
H      -0.818140   -2.326830    1.544836
H      -3.084148   -3.453325    0.715388
H      -4.925360   -1.829003    0.178851
H      -3.884400   -0.418295    0.610319
H      -3.437959   -2.446240   -1.746814
