17

O      -0.857873    1.010136   -0.115193
C      -0.262575   -0.200518   -0.123733
C       0.277433   -0.967021   -1.142222
C       0.731793   -2.125431   -0.459930
N       0.493969   -2.088239    0.843743
N      -0.122032   -0.888271    1.028102
C       0.361209   -0.595623   -2.573402
C      -0.302024   -1.444604   -3.631281
C      -0.874624   -0.090538   -3.306194
H      -0.868761    1.331040   -1.024739
H       1.222618   -2.988218   -0.888286
H      -0.420630   -0.607905    1.946374
H       1.292750   -0.128604   -2.887987
H       0.209064   -1.569102   -4.579178
H      -0.854127   -2.315271   -3.296900
H      -1.815591   -0.068585   -2.765814
H      -0.753445    0.706520   -4.031583
