21

C      -0.067091    1.537904    0.024850
N       1.224971    0.831249    0.046543
C      -0.027205    0.053458    0.023914
C      -0.322388   -0.746419    1.248593
N      -1.559871   -1.557531    1.209296
C      -0.266586   -2.228100    1.274025
C       0.295143   -3.185309    0.215500
C       1.174070   -3.816180    1.336559
C       0.305271   -3.089275    2.406983
H      -0.307971    2.071534    0.940774
H      -0.378322    2.042993   -0.885799
H       1.646515    0.845030   -0.877965
H      -0.309439   -0.437722   -0.904712
H      -0.070356   -0.238998    2.179293
H      -2.012731   -1.564548    2.120433
H      -0.471559   -3.870451   -0.158321
H       0.816559   -2.742984   -0.636996
H       1.200473   -4.906206    1.385715
H       2.199759   -3.441199    1.317340
H       0.826890   -2.573733    3.217894
H      -0.452255   -3.751400    2.840938
