17

O      -0.069309    1.390635   -0.017083
C       0.018843   -0.008815   -0.021811
C      -1.359961   -0.704453   -0.013388
C      -0.769609   -2.130577   -0.129762
C       0.189806   -1.934586   -1.302336
C       0.652850   -0.683246   -1.243544
C       0.177588   -2.129559    1.098931
O       0.462418   -3.059467    1.801581
C       0.678089   -0.671531    1.223558
H       0.815329    1.754202    0.092726
H      -1.917282   -0.523647    0.911373
H      -1.965639   -0.428562   -0.878908
H      -1.439978   -2.986180   -0.171247
H       0.499024   -2.729541   -1.968186
H       1.412132   -0.222357   -1.863653
H       1.769438   -0.620191    1.243088
H       0.293639   -0.237221    2.152997
