22

C       0.107663    1.660275   -0.069418
C      -0.155595    0.154865   -0.190019
C       0.708392   -0.490654   -1.273117
C       2.176147   -0.705444   -0.967289
N       3.113968    0.040092   -0.587168
O       2.160763   -2.054809   -1.224271
C       0.703084   -2.036098   -1.508717
C      -0.025355   -2.900575   -0.493661
C       0.450682   -2.475052   -2.941020
H       1.162880    1.849129    0.145198
H      -0.144010    2.180188   -1.000566
H      -0.495245    2.098297    0.731670
H       0.036653   -0.325864    0.775289
H      -1.212968   -0.023856   -0.423960
H       0.575062    0.051117   -2.216003
H       3.979297   -0.489852   -0.465664
H       0.230183   -2.618620    0.529955
H      -1.109284   -2.810947   -0.618231
H       0.246734   -3.951237   -0.634148
H       0.727037   -3.525123   -3.078043
H      -0.610263   -2.366279   -3.190186
H       1.033879   -1.871652   -3.642037
