15

C      -0.049311    1.570464   -0.005128
C       0.048928    0.030862   -0.014555
C       0.742169   -0.492201   -1.288491
O      -0.059355   -0.093548   -2.384102
C       0.732455   -0.469991    1.168987
C       1.313227   -0.878806    2.147211
C       1.968216   -1.340778    3.252168
N       2.527316   -1.735106    4.191293
H       0.948210    2.018899    0.023635
H      -0.557032    1.900891   -0.912694
H      -0.607583    1.919659    0.866449
H      -0.968695   -0.383401   -0.019878
H       1.756743   -0.069483   -1.346514
H       0.835139   -1.586084   -1.229369
H       0.376282   -0.366876   -3.196459
