17

O       0.270905    0.794631   -0.888079
C       0.012273    0.045989    0.279279
C      -1.386163   -0.579899    0.278481
C      -2.000206   -1.120179   -0.963561
N      -0.935081   -1.669909   -1.827047
C      -0.656314   -2.738778   -0.808326
C      -1.641215   -2.089547    0.180359
C      -2.459273   -2.800980    1.099660
N      -3.124520   -3.388537    1.844076
H       0.176983    0.164841   -1.618306
H       0.773872   -0.731776    0.440980
H       0.089956    0.739179    1.122021
H      -2.118529   -0.105949    0.925920
H      -2.968664   -0.827786   -1.349972
H      -1.311139   -2.071986   -2.678163
H      -1.008126   -3.722753   -1.126379
H       0.392154   -2.806736   -0.503826
