16

O       0.134954    1.317232   -0.019864
C       0.061358   -0.075380   -0.065270
C      -1.380581   -0.546705    0.054624
O      -2.269303    0.277093    0.173969
C      -1.648736   -2.012401    0.007838
O      -0.530283   -2.840827   -0.133524
C      -2.867768   -2.527872    0.755867
C      -2.894146   -2.450214   -0.738102
H      -0.784465    1.613993    0.080545
H       0.480720   -0.480240   -0.999407
H       0.647463   -0.535928    0.748099
H      -0.152142   -2.998488    0.738477
H      -2.759549   -3.505921    1.211183
H      -3.435095   -1.795166    1.317569
H      -3.482966   -1.667087   -1.200097
H      -2.787946   -3.370889   -1.299117
