16

C       0.077811    1.385968    0.006267
O      -0.008921   -0.026628    0.003676
C      -1.243178   -0.593878    0.011594
C      -2.445677    0.119345    0.022125
C      -3.653450   -0.579304    0.029548
C      -3.689679   -1.967794    0.026721
C      -2.476452   -2.647789    0.016180
F      -2.483764   -3.985935    0.013250
C      -1.259261   -1.993513    0.008589
H       1.142737    1.623459   -0.001061
H      -0.395347    1.822159   -0.882657
H      -0.382143    1.818070    0.904072
H      -2.453248    1.200750    0.024587
H      -4.584136   -0.021857    0.037710
H      -4.619232   -2.522718    0.032396
H      -0.329554   -2.547955    0.000437
