23

C       0.138893    1.474454    0.167516
C      -0.097063   -0.038092    0.113047
O       0.435570   -0.660915    1.278410
C      -1.578669   -0.469645   -0.118803
C      -2.103864    0.098778   -1.447088
C      -1.686039   -2.029840   -0.074864
C      -2.213931   -2.403679    1.333342
C      -2.760679   -1.095185    1.851244
C      -2.440134   -0.066180    1.066431
H       1.192673    1.663384    0.388840
H      -0.105184    1.965459   -0.778669
H      -0.458507    1.942667    0.958015
H       0.492570   -0.454541   -0.713943
H      -0.142002   -0.417028    2.012531
H      -1.469108   -0.210355   -2.285915
H      -3.117448   -0.264317   -1.642835
H      -2.141348    1.192262   -1.442254
H      -2.402553   -2.359228   -0.833988
H      -0.729629   -2.507972   -0.296703
H      -2.979534   -3.187736    1.300136
H      -1.413419   -2.778892    1.982677
H      -3.344553   -1.023744    2.763567
H      -2.729804    0.964411    1.245841
