20

C      -0.287138    1.061693   -1.163560
O       0.111982   -0.283650   -1.301277
C       0.726350   -0.805557   -0.143759
C       1.140425   -2.264027   -0.338979
O       1.688891   -2.873772    0.563078
N       0.843552   -2.774723   -1.558335
C       1.151093   -4.122359   -1.926170
C       0.259441   -4.872210   -2.876930
C       1.647112   -4.443682   -3.310511
H      -1.020648    1.184161   -0.352444
H       0.571225    1.718150   -0.955690
H      -0.746426    1.364998   -2.107096
H       1.629564   -0.235370    0.122745
H       0.049137   -0.764197    0.723220
H       0.385228   -2.156402   -2.210721
H       1.581357   -4.652847   -1.086544
H       0.069302   -5.922491   -2.685576
H      -0.584395   -4.338836   -3.302948
H       1.718907   -3.626663   -4.021168
H       2.419377   -5.197189   -3.419011
