21

C       0.008615    1.573148    0.055274
C      -0.014099    0.072004    0.045214
C       1.155389   -0.775560   -0.374860
C       0.596320   -0.949183    1.019780
C       1.422876   -0.760867    2.260288
C      -0.699745   -1.792697    0.981666
C      -1.288154   -0.779303   -0.065648
C      -0.586685   -3.240925    0.590622
O      -1.029382   -4.161369    1.232628
H       0.989109    1.954429    0.359075
H      -0.206072    1.979869   -0.940689
H      -0.738030    1.981266    0.746372
H       1.050950   -1.536598   -1.144226
H       2.110675   -0.259300   -0.405362
H       2.149205    0.048345    2.130785
H       0.796165   -0.514443    3.124899
H       1.984519   -1.669680    2.507754
H      -1.238926   -1.742380    1.930814
H      -2.184786   -0.288979    0.319556
H      -1.510986   -1.177555   -1.061987
H      -0.045636   -3.428849   -0.365433
