18

O      -0.099399    1.212812   -0.215804
C       0.081157   -0.179010    0.049804
C       0.820036   -0.339258    1.406761
C       2.112644    0.340771    1.386924
N       3.123482    0.897409    1.314372
C      -1.320912   -0.832260    0.075933
C      -1.504626   -1.501876   -1.307796
C      -0.096177   -1.578722   -1.842214
C       0.766718   -0.885985   -1.102965
H       0.761229    1.597330   -0.421926
H       0.205099    0.097056    2.201111
H       0.973748   -1.398168    1.638836
H      -1.362100   -1.590950    0.863250
H      -2.076282   -0.076486    0.298903
H      -1.981418   -2.485402   -1.233138
H      -2.137088   -0.902893   -1.975465
H       0.154209   -2.119467   -2.748742
H       1.826772   -0.765945   -1.300240
