12

N       0.059303    1.374074   -0.124648
C      -0.088337    0.019255   -0.048991
C      -1.244027   -0.680289   -0.023155
C      -1.196559   -2.116159   -0.003927
N      -2.212098   -2.875479    0.016327
O       0.092543   -2.665422   -0.006549
N       1.260179   -1.868480   -0.015217
N       1.160002   -0.639764   -0.038646
H       0.968656    1.734080    0.117687
H      -0.728061    1.956161    0.107691
H      -2.219039   -0.210724   -0.020703
H      -1.934468   -3.856999    0.028919
