18

O      -0.341910    0.059126    0.304655
C      -0.038920    1.195258    0.053583
C       1.388384    1.677273   -0.171861
N       1.430931    2.730838   -1.154787
C       1.445158    2.362838   -2.596270
C       2.573721    3.383479   -2.836617
O       2.128847    4.742842   -2.991923
C       2.328963    5.027580   -1.582115
C       2.654564    3.552078   -1.299715
H      -0.793841    2.009541   -0.026302
H       1.726754    2.087525    0.791424
H       2.022620    0.801443   -0.397907
H       1.779907    1.328411   -2.770250
H       0.505036    2.537807   -3.128141
H       3.386671    3.121296   -3.516013
H       3.166614    5.722069   -1.436763
H       1.426393    5.413943   -1.098147
H       3.501511    3.288472   -0.663000
