16

C       0.074848    1.519756   -0.228821
C      -0.048837    0.051960    0.090820
O       1.148491   -0.733234    0.092374
C       0.434249   -0.594266    1.322631
C       1.127396    0.140694    2.446328
C       2.071479   -0.762783    3.218991
F       3.055491   -1.236150    2.446919
F       2.637844   -0.101050    4.241019
F       1.421996   -1.820682    3.737731
H       0.919010    1.984584    0.284103
H       0.221998    1.655236   -1.305167
H      -0.841889    2.049592    0.051746
H      -0.886961   -0.442117   -0.405644
H      -0.075750   -1.503999    1.642225
H       1.711776    0.981465    2.069574
H       0.390949    0.522800    3.161139
