12

O       0.076916    1.324453   -0.104579
C       0.064145   -0.008658   -0.068971
C      -0.007213   -0.747707   -1.263414
N      -0.018486   -2.061526   -1.205543
C       0.041071   -2.601847    0.027373
C       0.027309   -4.101048    0.077294
O       0.073979   -4.755456    1.083906
N       0.109142   -1.926159    1.174161
N       0.120590   -0.603274    1.119046
H       0.128964    1.632207    0.814165
H      -0.053100   -0.255097   -2.230786
H      -0.031828   -4.550489   -0.935680
