23

C      -0.131382    1.443951    0.337716
C      -0.063181   -0.042910   -0.026175
C       0.740865   -0.420161   -1.281171
C       0.358869    0.283428   -2.607953
O       1.725219    0.670882   -2.848074
C       2.116056    0.253792   -1.520999
C       0.823735   -1.957551   -1.380909
C       1.419754   -2.524002   -2.672457
O       1.606524   -2.361221   -0.254555
H       0.852431    1.850309    0.590842
H      -0.544504    2.055263   -0.470831
H      -0.774365    1.583924    1.212341
H       0.350461   -0.602847    0.818219
H      -1.086134   -0.420744   -0.166411
H      -0.047508   -0.336100   -3.415208
H      -0.294433    1.156607   -2.481301
H       2.330829    1.113288   -0.875279
H       2.987089   -0.408472   -1.527255
H      -0.203342   -2.349521   -1.277272
H       1.511535   -3.612953   -2.582074
H       0.780226   -2.329449   -3.537072
H       2.412195   -2.115906   -2.877065
H       1.713839   -3.316387   -0.292633
