16

O       0.155916    1.343397   -0.138515
C       0.014993   -0.032452    0.011962
C       0.321294   -0.645207    1.436558
C      -0.860135   -0.032308    2.203125
C      -1.909970   -0.015383    1.376358
C      -1.453744   -0.616294    0.038503
C      -1.075303   -2.080862    0.274551
C      -0.026336   -2.097959    1.100986
H      -0.380871    1.756975    0.551573
H       0.622642   -0.493660   -0.769077
H       1.312103   -0.465025    1.852340
H      -0.824973    0.271473    3.240892
H      -2.920835    0.305309    1.590343
H      -2.086237   -0.409619   -0.824215
H      -1.589639   -2.922198   -0.169745
H       0.508911   -2.956411    1.483553
