19

C      -0.020551   -3.777475   -0.065049
C      -0.000611   -2.571278   -0.006265
C       0.020995   -1.212313    0.060460
C       0.037928   -0.003282    0.120927
C       0.087163    1.448217    0.187195
C       1.456157    2.031860   -0.233947
C       1.483057    3.541753   -0.148629
C       1.786101    4.225781    1.162714
C       2.787988    4.271799    0.034639
H      -0.036993   -4.837561   -0.116636
H      -0.699472    1.868460   -0.454152
H      -0.147558    1.777533    1.207939
H       2.236039    1.609327    0.410010
H       1.683643    1.702790   -1.254656
H       0.749318    4.037751   -0.780400
H       1.248286    5.133402    1.412961
H       2.019284    3.598805    2.017620
H       3.690102    3.676966    0.134511
H       2.932320    5.210070   -0.489303
