14

N       0.030285    1.336883    0.139356
C       0.028856    0.080456    0.177556
O       1.125454   -0.719513    0.371795
C       0.778722   -2.090914    0.146493
C      -0.734438   -2.135221    0.373610
N      -1.095825   -0.757099    0.053869
C      -2.388437   -0.384900   -0.281119
O      -2.774163    0.721664   -0.539720
H       0.984885    1.682894    0.225018
H       1.043797   -2.367947   -0.880666
H       1.342831   -2.710362    0.845192
H      -1.241210   -2.846179   -0.282601
H      -0.978993   -2.379666    1.414628
H      -3.046921   -1.277859   -0.290707
