16

C      -0.118104    1.481353    0.047515
C      -0.075966   -0.011468    0.104439
C       0.632785   -1.052271   -0.849520
O       1.875766   -1.047967   -0.098305
C       0.857505   -0.961313    0.935219
C      -0.147355   -1.905484    0.208252
N      -1.243531   -0.916599    0.344181
C      -2.434946   -0.958174   -0.329955
O      -3.001152   -1.972885   -0.673569
H       0.900209    1.859177   -0.085623
H      -0.726977    1.836005   -0.789685
H      -0.526331    1.897580    0.973362
H       0.665262   -1.119387   -1.937301
H       1.156965   -0.917247    1.981396
H      -0.286174   -2.980089    0.281191
H      -2.874450    0.052471   -0.455140
