21

O       0.004210    1.473511   -0.031445
C       0.038460    0.060663    0.109493
C      -1.356117   -0.477032   -0.190205
C      -1.435739   -1.995030   -0.102529
C      -1.499453   -2.693588    1.278145
C      -3.031389   -2.395499    1.459979
C      -3.355766   -3.870656    1.766063
C      -2.256425   -3.933678    0.689243
C      -2.818578   -2.682703   -0.070062
H       0.879446    1.817086    0.169578
H       0.767105   -0.391024   -0.584142
H       0.338868   -0.230075    1.129308
H      -2.064590   -0.011481    0.504687
H      -1.641697   -0.145951   -1.196762
H      -0.726788   -2.461905   -0.800845
H      -0.755649   -2.723734    2.077299
H      -3.470825   -1.497850    1.895776
H      -3.091452   -4.236917    2.763691
H      -4.350297   -4.227036    1.477786
H      -1.788190   -4.803175    0.224329
H      -3.598716   -2.693949   -0.834252
