15

C      -0.025581    1.503716   -0.016502
C       0.035275    0.002022    0.028673
N       0.122207   -0.630517   -1.159758
C       0.173871   -1.956311   -1.103458
N       0.148083   -2.736248   -0.023602
C       0.066119   -2.100325    1.153771
N       0.084500   -2.883382    2.274771
C       0.004687   -0.697649    1.222584
H       0.867638    1.899665   -0.510093
H      -0.885310    1.826024   -0.612405
H      -0.101558    1.940742    0.981949
H       0.242184   -2.476086   -2.057594
H      -0.076667   -3.866215    2.120573
H      -0.259811   -2.501708    3.139490
H      -0.060381   -0.184650    2.176030
