21

C       0.300032    1.674576   -0.304127
O      -0.094371    0.313445   -0.265749
C       0.649322   -0.527884   -1.124683
C       1.955279   -1.048366   -0.471969
O       1.776120   -1.229686    0.921945
C       2.148460   -2.399016   -1.173244
O       0.927028   -2.725933   -1.846860
C      -0.110359   -1.827840   -1.462211
C      -0.970229   -2.384402   -0.327521
H       1.338521    1.814152    0.026885
H       0.196884    2.088254   -1.317006
H      -0.363099    2.218364    0.372260
H       0.889346   -0.000427   -2.058221
H       2.806514   -0.377999   -0.654560
H       1.067894   -0.623227    1.179728
H       2.946441   -2.362940   -1.923961
H       2.402243   -3.162174   -0.428020
H      -0.736774   -1.681649   -2.349473
H      -0.370277   -2.562525    0.567609
H      -1.771966   -1.684096   -0.076959
H      -1.416551   -3.330572   -0.645542
