14

C       0.119311    1.478717    0.195885
C      -0.038882   -0.003960   -0.112288
C       0.820818   -0.505123   -1.284919
O       1.974319   -1.045183   -0.636583
C       1.673384   -1.293387    0.672995
N       2.393483   -1.888903    1.513466
O       0.452508   -0.797526    0.980506
H       1.176932    1.744580    0.289854
H      -0.321047    2.080975   -0.605510
H      -0.384683    1.726712    1.133139
H      -1.093372   -0.260226   -0.243939
H       0.323643   -1.293024   -1.861970
H       1.138497    0.293155   -1.959420
H       3.248679   -2.214730    1.069565
