21

C       0.000094    1.586166   -0.010237
C       0.056063    0.064249    0.004506
C       0.697317   -0.585065   -1.247276
C       1.267177   -1.892650   -0.704451
C       0.808711   -3.216732   -1.195018
N       2.182651   -2.747563   -1.468105
C       1.540970   -1.639717    0.754849
C       2.244694   -0.376937    1.095925
N       0.778969   -0.456355    1.195096
H       1.001401    2.019562   -0.107638
H      -0.603711    1.942870   -0.850840
H      -0.443675    1.961956    0.915926
H      -0.965475   -0.323324    0.105564
H      -0.025581   -0.737341   -2.052970
H       1.500320    0.046768   -1.647330
H       0.745306   -4.060965   -0.512838
H       0.089360   -3.238991   -2.010178
H       2.249374   -2.413383   -2.426892
H       1.577514   -2.491016    1.428397
H       2.752984   -0.285752    2.051102
H       2.700408    0.194385    0.291464
