15

O      -0.103055    1.492545   -0.068895
C      -0.044647    0.090266   -0.011311
C      -1.381584   -0.613313   -0.054949
C      -2.104886   -0.603733   -1.348854
N      -1.319133   -1.789586   -0.976076
C       0.012517   -1.806333   -1.601699
C       0.680842   -0.483831   -1.240816
O       1.559999    0.104419   -1.816551
H       0.677168    1.766654   -0.574096
H       0.509832   -0.245226    0.884890
H      -1.921011   -0.773671    0.872259
H      -3.178777   -0.758473   -1.365429
H      -1.729716    0.048930   -2.135883
H       0.596281   -2.639545   -1.189169
H      -0.043972   -1.942667   -2.685099
