19

C      -0.193059    1.469605    0.034598
N      -0.000183    0.027627    0.003414
C       0.911678   -0.434456   -1.045971
C       2.336488    0.028374   -0.646057
C       2.260914   -0.259789    0.807267
C       0.757812   -0.535638    1.145191
C       0.645365   -2.035314    0.802491
C       1.361155   -1.857985   -0.533748
N       2.727872   -1.323066   -0.145985
H       0.746236    2.042432    0.123872
H      -0.698144    1.786650   -0.883515
H      -0.835639    1.734107    0.880127
H       0.548966   -0.293010   -2.062417
H       3.032714    0.697228   -1.140213
H       2.992464    0.093250    1.522394
H       0.404104   -0.193130    2.116225
H       1.215892   -2.686701    1.469728
H      -0.392790   -2.362525    0.730993
H       1.409574   -2.685578   -1.237724
