25

C       0.274636    0.902126    1.665625
C      -0.205253   -0.557936    1.686002
C      -0.523178   -1.000948    3.121909
C      -1.406335   -0.735182    0.770282
C      -1.247698   -0.737301   -0.730297
C      -1.714192   -1.990095   -0.028211
C      -0.858955   -3.241262   -0.035111
C      -1.334813   -4.302738    0.951308
O      -0.498235   -5.440379    0.800967
H       1.151117    1.039058    2.307941
H       0.541365    1.218690    0.652857
H      -0.511080    1.575766    2.028328
H       0.615868   -1.181544    1.309506
H      -1.331672   -0.392674    3.545284
H      -0.840191   -2.047059    3.162514
H       0.350309   -0.887751    3.772720
H      -2.289448   -0.213457    1.137557
H      -1.948013   -0.179881   -1.342960
H      -0.232202   -0.744376   -1.117399
H      -2.777083   -2.201601   -0.132142
H      -0.872429   -3.687368   -1.037772
H       0.189072   -3.007125    0.179507
H      -1.293488   -3.910845    1.979453
H      -2.388486   -4.553038    0.742884
H      -0.790609   -6.112772    1.422843
