19

C      -0.279900    1.539552   -0.076073
C       0.082272    0.049555    0.059795
C       0.801160   -0.478883   -1.140970
C       2.052830   -0.912524   -1.298657
C       2.277310   -1.343378   -2.720860
C       2.679420   -2.806164   -2.893585
O       1.015986   -1.105318   -3.364198
C       0.120028   -0.596818   -2.462919
O      -1.010663   -0.319611   -2.757336
H       0.619654    2.154919   -0.176811
H      -0.907731    1.698801   -0.955794
H      -0.828780    1.881021    0.806271
H       0.694139   -0.113252    0.953233
H      -0.842329   -0.525512    0.191109
H       2.827212   -0.973952   -0.543538
H       3.020354   -0.699416   -3.212307
H       1.943965   -3.462714   -2.420806
H       2.743713   -3.056531   -3.955360
H       3.656681   -2.985261   -2.434512
