17

O      -0.315934    1.510917   -0.212818
C       0.054936    0.150245    0.015446
C      -1.172250   -0.808608    0.200086
C      -1.411027   -1.558777   -1.148888
C      -0.072220   -1.410875   -1.811650
N       0.499816   -1.948590   -2.878925
N       1.715237   -1.343964   -2.904050
C       1.914857   -0.454927   -1.892775
C       0.752703   -0.479067   -1.152795
H      -0.643080    1.571595   -1.116969
H       0.654209    0.186662    0.929697
H      -0.930293   -1.540238    0.977707
H      -2.041374   -0.241210    0.540794
H      -1.707101   -2.600030   -0.995201
H      -2.204104   -1.090651   -1.744294
H       2.365157   -1.598922   -3.628645
H       2.841651    0.088932   -1.799051
