17

N      -0.080354    1.300251   -0.364839
C      -0.033639   -0.065091   -0.155935
C      -1.195800   -0.852663   -0.247735
C      -1.091613   -2.224279   -0.083465
C      -2.318130   -3.111520   -0.151523
O      -3.418490   -2.531683   -0.827305
C       0.174208   -2.771013    0.162243
C       1.256392   -1.907643    0.239126
N       1.176012   -0.582402    0.088873
H       0.737599    1.788694   -0.031939
H      -0.953068    1.762684   -0.165068
H      -2.161306   -0.400000   -0.443493
H      -2.039904   -4.083091   -0.588391
H      -2.675872   -3.316975    0.864837
H      -3.145434   -2.360447   -1.735030
H       0.310605   -3.839554    0.288784
H       2.253553   -2.298524    0.430838
