14

O       0.039478   -0.089620    0.001454
C      -0.024171    1.113726    0.009066
N      -1.187812    1.885760    0.029555
C      -1.114266    3.187189    0.035710
N       0.001601    4.004432    0.024410
C       1.075340    3.282928    0.005492
C       2.583740    3.424923   -0.014896
C       2.592500    1.849322   -0.023617
N       1.120858    1.935734   -0.002395
H      -2.060634    3.725775    0.051596
H       2.988546    3.900365   -0.909653
H       3.013585    3.890641    0.873276
H       2.983377    1.378675   -0.927172
H       3.008627    1.368899    0.863363
