23

C      -0.436210    1.503153   -0.008131
C      -0.018824    0.031847   -0.014154
C       0.730714   -0.444036   -1.300345
C       1.917349   -1.298918   -0.789759
C       1.434557   -1.769823    0.590624
C       0.905288   -0.434784    1.146593
C       2.127381    0.475139    1.389649
C       2.964897    0.651896    0.111728
O       3.122377   -0.546366   -0.635633
H       0.414762    2.177895   -0.144681
H      -1.146285    1.707591   -0.816545
H      -0.924942    1.772005    0.934935
H      -0.937171   -0.562607    0.073855
H       0.078649   -1.049401   -1.936670
H       1.088332    0.387592   -1.914748
H       2.181699   -2.110204   -1.471796
H       0.629946   -2.508110    0.492331
H       2.244069   -2.209598    1.179241
H       0.342149   -0.547011    2.078523
H       1.827127    1.462983    1.757414
H       2.741915    0.017907    2.174174
H       2.513386    1.430951   -0.521265
H       3.978018    0.987607    0.353399
