23

C      -0.263388    1.525829    0.126984
C      -0.006325    0.028071    0.016571
C      -1.213699   -0.717308   -0.538903
O       1.165833   -0.221211   -0.817366
C       1.873752   -0.846855    0.266333
C       0.697256   -0.633548    1.237928
C       0.960729    0.074086    2.591980
C       0.849332   -1.305536    3.294932
C       0.142104   -1.848918    2.024207
H       0.614651    2.047695    0.516854
H      -0.490912    1.936041   -0.862293
H      -1.113059    1.735835    0.785607
H      -1.455266   -0.338739   -1.537398
H      -1.010280   -1.788299   -0.622343
H      -2.093749   -0.579834    0.098697
H       2.122823   -1.894095    0.045439
H       2.799796   -0.310998    0.516931
H       1.898888    0.627033    2.692906
H       0.136491    0.738108    2.870068
H       1.828904   -1.767245    3.446352
H       0.298080   -1.348861    4.236740
H      -0.947539   -1.808939    2.118505
H       0.421407   -2.844482    1.668004
