19

C      -0.103431    1.575816   -0.006998
C      -0.080906    0.046398   -0.043518
C       0.791276   -0.509131   -1.186819
C       0.795748   -2.004971   -1.262677
C       1.773402   -2.888973   -0.940675
O       1.373419   -4.155275   -1.114557
N       0.056809   -4.145505   -1.591676
C      -0.273606   -2.875302   -1.665339
N      -1.553178   -2.486572   -2.035473
H       0.904486    1.985495    0.124494
H      -0.507996    1.990636   -0.937312
H      -0.722129    1.944020    0.816905
H       0.296442   -0.346697    0.907899
H      -1.100059   -0.342968   -0.149821
H       0.439250   -0.087212   -2.139812
H       1.820077   -0.149413   -1.067649
H       2.783250   -2.759545   -0.580175
H      -2.078678   -3.239870   -2.460307
H      -1.578577   -1.653302   -2.607050
