14

O       0.147136    1.398119    0.133319
C       0.031524    0.026186    0.032997
C      -0.432643   -0.839526    1.152545
C      -1.341849   -0.667267   -0.068469
C      -2.535841    0.160778    0.034513
N      -2.665666    1.221675    0.788239
O      -3.913534    1.687943    0.522068
N      -4.506677    0.855433   -0.413600
N      -3.690184   -0.052575   -0.708608
H      -0.595477    1.751053    0.644167
H       0.794266   -0.363401   -0.632564
H       0.019339   -1.814873    1.294462
H      -0.760041   -0.348773    2.063447
H      -1.447851   -1.498088   -0.754598
