16

C       0.337469    1.385157    0.301542
C      -0.243290    0.006958   -0.045843
O      -1.666100    0.044977   -0.134897
C       0.364383   -0.543763   -1.262773
C       0.846285   -0.967190   -2.281242
C       1.431519   -1.494382   -3.515991
C       2.115224   -2.777102   -3.339591
C       2.680509   -3.827732   -3.207491
H       1.417501    1.323531    0.463647
H       0.155899    2.093619   -0.513341
H      -0.140637    1.762620    1.209156
H      -0.042241   -0.678315    0.786565
H      -1.890879    0.522331   -0.941285
H       0.642694   -1.606127   -4.272895
H       2.137269   -0.762164   -3.932167
H       3.177590   -4.757959   -3.084929
