13

N      -0.095719    1.249239    0.665761
C      -0.003127    0.122173    0.074869
C      -1.278757   -0.586802   -0.193290
N      -1.616858   -1.399680   -1.120336
N      -0.769017   -1.826554   -2.090101
C       0.607129   -1.849047   -2.221594
O       1.119735   -2.393855   -3.178390
C       1.488668   -1.258844   -1.155600
N       1.256098   -0.435861   -0.217180
H       0.843241    1.623694    0.827262
H      -2.082546   -0.306429    0.481685
H      -1.240233   -2.358992   -2.809936
H       2.514876   -1.606635   -1.285018
