20

C      -0.028241    1.367291   -0.331564
O      -0.076400    0.114709    0.335693
C      -1.290889   -0.547778    0.156963
C      -1.530079   -1.231530   -1.223259
O      -1.554534   -0.877227   -2.374368
N      -1.682358   -2.446130   -0.610031
C      -1.341304   -1.996731    0.761441
C       0.007381   -2.517068    1.251983
C      -2.457932   -2.240477    1.773498
H       0.959193    1.790929   -0.136526
H      -0.174396    1.251117   -1.411322
H      -0.796322    2.052828    0.058514
H      -2.142076    0.077883    0.468057
H      -1.798755   -3.372439   -0.996740
H       0.793087   -2.320263    0.520831
H       0.287551   -2.028039    2.189354
H      -0.046292   -3.596112    1.433962
H      -2.572937   -3.310583    1.978621
H      -2.230804   -1.743415    2.721944
H      -3.414374   -1.861171    1.402214
