16

C       0.203726    1.491858   -0.330964
C       0.081442    0.050554    0.052238
N      -0.678714   -0.777970   -0.663095
N      -0.551467   -1.971953   -0.049663
C       0.251622   -1.933221    1.043200
C       0.522805   -3.168795    1.844858
O      -0.615805   -4.019943    1.922287
C       0.684980   -0.626772    1.141700
H       1.240807    1.759154   -0.562160
H      -0.407685    1.694026   -1.212870
H      -0.127986    2.152137    0.477947
H      -1.068667   -2.769067   -0.380721
H       1.299584   -3.779565    1.369784
H       0.899399   -2.885996    2.837680
H      -1.310701   -3.533523    2.379345
H       1.344756   -0.218942    1.891632
