16

C      -0.025511    1.395529    0.052264
N      -0.006603   -0.048050    0.013669
N      -0.030359   -0.694919   -1.180781
C      -0.003973   -1.983682   -0.862145
C       0.036989   -2.199092    0.530054
C       0.033838   -0.921539    1.057145
N       0.063365   -0.454333    2.370658
C       0.104383   -1.242451    3.494222
O       0.121090   -2.450080    3.503155
H       0.876364    1.797139    0.529591
H      -0.058576    1.739334   -0.980669
H      -0.910660    1.772417    0.578554
H      -0.015253   -2.724817   -1.647952
H       0.064763   -3.118258    1.085261
H       0.053221    0.543345    2.515087
H       0.120693   -0.622148    4.410577
