22

C      -0.124071    1.563824    0.041900
C       0.041604    0.043532   -0.057208
C       0.741770   -0.561226    1.153655
C      -0.017937   -0.625074    2.517869
C       0.581624   -2.027855    2.763918
O      -0.312939   -2.962267    3.318327
C       0.902346   -2.087437    1.266041
C       0.424499   -3.109353    0.314108
N       1.862798   -2.997206    0.654438
H       0.847670    2.063244    0.124514
H      -0.632326    1.966470   -0.839604
H      -0.713899    1.840620    0.922127
H      -0.941583   -0.428864   -0.174856
H       0.610827   -0.200125   -0.965312
H       1.717216   -0.075984    1.293956
H       0.184572    0.148709    3.259992
H      -1.097883   -0.708493    2.363176
H       1.511437   -1.968666    3.348625
H       0.176531   -3.770972    3.500124
H      -0.068018   -4.001381    0.690921
H       0.095354   -2.790255   -0.671307
H       2.360721   -2.529811   -0.101063
