15

C      -0.092331    1.571481    0.081047
C       0.036569    0.067959   -0.029340
C       0.677697   -0.628289   -1.218766
C       1.268489    0.135313   -2.352213
O       1.125740   -0.195132   -3.502759
C       1.358610   -0.640404    0.161166
C       2.558677    0.120436    0.380753
N       3.519513    0.735415    0.573623
H       0.817958    2.093127   -0.221376
H      -0.917489    1.933043   -0.539913
H      -0.301325    1.852525    1.117684
H      -0.807842   -0.480156    0.378494
H       0.238826   -1.569905   -1.530000
H       1.857264    1.034840   -2.078650
H       1.351096   -1.596115    0.674124
