18

C       0.020179    1.372325    0.073626
O      -0.063823   -0.029815   -0.071041
C       0.627172   -0.550728   -1.186800
C       2.131418   -0.727909   -0.915344
O       2.739876   -1.441802   -1.982253
C       2.122270   -2.687475   -2.172838
O       0.767197   -2.574068   -2.515092
C       0.028872   -1.928280   -1.488250
H       1.044539    1.716103    0.276155
H      -0.348295    1.892979   -0.823162
H      -0.609979    1.644222    0.923755
H       0.496554    0.094955   -2.068678
H       2.654485    0.228472   -0.839862
H       2.253164   -1.268128    0.038538
H       2.625971   -3.169065   -3.012901
H       2.227034   -3.299629   -1.255752
H       0.036175   -2.527962   -0.563002
H      -1.003187   -1.841328   -1.834527
