21

C       0.130812    1.572070   -0.112031
C       0.076075    0.060274    0.026283
O      -1.283112   -0.391485    0.038824
C       0.943845   -0.833689   -0.912631
C       1.401442   -1.707454    0.290930
C       2.783973   -1.314848    0.858616
C       2.121454   -0.183035    1.702375
C       0.714092   -0.650720    1.258506
O      -0.130908   -0.921120    2.324542
H       1.160022    1.941403   -0.112865
H      -0.330104    1.891036   -1.055735
H      -0.411397    2.050031    0.709644
H      -1.699128   -0.136720   -0.790723
H       0.346931   -1.357912   -1.662930
H       1.757580   -0.305150   -1.419051
H       1.131196   -2.762716    0.257814
H       3.228267   -2.093281    1.483541
H       3.529213   -1.001570    0.121481
H       2.244944   -0.304065    2.780212
H       2.392992    0.842331    1.439461
H      -1.010464   -1.049755    1.944051
