16

O       0.136910    1.290326   -0.171310
C       0.100077   -0.105010   -0.046706
C       0.825998   -0.833048   -1.201686
C      -0.133873   -1.920752   -1.613889
C      -1.277670   -1.911700   -0.924521
C      -1.275957   -0.827905    0.100101
O      -0.855416   -1.302795    1.452738
C       0.328705   -0.623758    1.362304
N       1.241702   -0.411790    2.198007
H       0.573601    1.638640    0.614678
H       1.004628   -0.112822   -2.008987
H       1.804386   -1.223932   -0.901326
H       0.105201   -2.625805   -2.403034
H      -2.105344   -2.596844   -1.061284
H      -2.174214   -0.217538    0.197674
H       1.044450   -0.849039    3.099668
