16

O       0.052074    1.388388    0.202459
C      -0.013009    0.003593    0.013855
C      -1.450940   -0.506473    0.014000
C      -1.413699   -2.020188   -0.202776
C      -0.667327   -2.403468   -1.453611
N      -0.948745   -3.418406   -2.140424
O       0.400663   -1.585340   -1.846480
C       0.684689   -0.374464   -1.287973
O       1.480661    0.348018   -1.821457
H       0.779120    1.703706   -0.354376
H       0.539150   -0.529180    0.812412
H      -1.928838   -0.259653    0.964960
H      -2.015872   -0.003563   -0.778500
H      -0.908537   -2.497589    0.648003
H      -2.408145   -2.462832   -0.268640
H      -0.310056   -3.513082   -2.932207
