21

C      -0.034616    1.568819   -0.003112
C       0.047902    0.040837    0.019822
C       0.800115   -0.564868   -1.190571
C       1.310745   -1.942038   -0.718988
C       1.528693   -1.789086    0.790623
C       2.270608   -0.537042    1.238469
C       0.767139   -0.540451    1.232545
C       1.596903   -2.970336    1.597246
C       1.652186   -3.977585    2.254098
H       0.965805    2.014891    0.020723
H      -0.538478    1.922698   -0.908974
H      -0.591224    1.951873    0.858539
H      -0.974427   -0.361683    0.028860
H       0.162661   -0.639056   -2.075769
H       1.640003    0.082536   -1.466553
H       0.551122   -2.714236   -0.881687
H       2.215946   -2.262073   -1.244834
H       2.760998   -0.592249    2.203064
H       2.815630    0.034272    0.493865
H       0.257866   -0.535111    2.189894
H       1.702729   -4.861946    2.838858
