15

C       0.138548    1.441322    0.047630
C      -0.059794   -0.030176    0.024118
C      -1.177413   -0.828623   -0.013195
N      -2.520511   -0.435140    0.017677
C      -0.706639   -2.175532    0.004157
C       0.658253   -2.104036    0.050893
O       1.063547   -0.805462    0.070047
C       1.647348   -3.108183    0.077144
N       2.444313   -3.949889    0.097412
H       0.957891    1.733819   -0.616477
H      -0.767152    1.954933   -0.287973
H       0.376732    1.812498    1.052073
H      -2.661203    0.531795   -0.243896
H      -3.117892   -1.026018   -0.545842
H      -1.297074   -3.078152   -0.011216
