15

C       0.043050    1.526837    0.024444
C      -0.000485   -0.000357   -0.003994
C       0.782574   -0.634487   -1.188176
O       1.725901   -1.529444   -0.559307
C       1.538639   -1.370433    0.782111
N       0.634597   -0.575116    1.195564
C       2.403257   -2.140787    1.612318
C       3.136394   -2.793288    2.304756
H       1.078497    1.881957    0.044660
H      -0.448415    1.943901   -0.860982
H      -0.465303    1.905605    0.914523
H      -1.049238   -0.322116   -0.014823
H       0.158442   -1.219747   -1.868017
H       1.346799    0.104256   -1.767260
H       3.780420   -3.367228    2.924922
