11

O      -0.027444   -0.011237    0.004026
C       0.013709    1.179942    0.009590
O      -1.099833    1.978302    0.027651
C      -0.730240    3.352613    0.030046
C       0.765566    3.361581    0.011326
C       1.201761    2.096943   -0.000614
C       2.538042    1.622796   -0.019799
N       3.627290    1.233716   -0.035450
H      -1.161606    3.847555   -0.849393
H      -1.139343    3.838475    0.925050
H       1.362194    4.263564    0.008459
