22

C      -0.103465    1.565923    0.009433
C       0.043280    0.041466   -0.014748
C       0.716224   -0.468964   -1.293724
C       0.613517   -1.999514   -1.364688
N       0.997196   -2.727945   -0.153029
C       2.305972   -2.477825    0.430338
C       1.076021   -1.993853    1.119986
C       0.811673   -0.489405    1.214960
O       2.070816    0.167112    1.382459
H       0.864784    2.063530   -0.117089
H      -0.747692    1.906685   -0.806958
H      -0.549241    1.915078    0.948787
H      -0.963722   -0.398200    0.039292
H       0.237479   -0.039353   -2.181186
H       1.761022   -0.136182   -1.306502
H      -0.431213   -2.266743   -1.572221
H       1.210560   -2.394959   -2.194023
H       2.828830   -3.357009    0.798726
H       2.948332   -1.715936   -0.002817
H       0.702434   -2.567980    1.964446
H       0.194082   -0.316460    2.109259
H       1.895863    1.094429    1.572354
