21

C       0.514315    0.888579    0.617779
C       0.222335   -0.613124    0.606973
O       0.565943   -1.216026    1.858153
C      -1.254627   -0.904825    0.415559
C      -1.870282   -0.840655   -1.008391
O      -1.099873   -2.053505   -1.372346
C      -1.679188   -2.328631   -0.032627
C      -3.034152   -1.776744   -0.566077
C      -4.186975   -1.342756    0.323928
H       1.582022    1.074670    0.781725
H       0.242911    1.350836   -0.337165
H      -0.043548    1.385070    1.418619
H       0.777154   -1.089575   -0.211052
H       1.508839   -1.084634    1.998654
H      -1.837529   -0.458451    1.225059
H      -1.877545   -0.019426   -1.727768
H      -1.447562   -3.290407    0.425382
H      -3.382185   -2.373477   -1.413369
H      -3.875440   -0.739549    1.179834
H      -4.910134   -0.755261   -0.252081
H      -4.715918   -2.220049    0.711548
