19

C      -0.033667    1.407994    0.082717
C       0.118114   -0.078368    0.015967
C       0.668763   -0.972196   -1.129499
C       0.006959   -1.876122   -0.061983
C      -0.337202   -3.340289   -0.120575
C      -1.137648   -3.791970    1.087773
O      -0.881843   -4.769435    1.742375
C       0.719609   -1.064041    1.051181
O      -1.121841   -0.910747    0.006295
H       0.949586    1.888718    0.079905
H      -0.601524    1.775102   -0.777384
H      -0.559266    1.699444    0.996957
H       0.125379   -0.899918   -2.073227
H       1.752398   -1.034444   -1.260614
H      -0.953733   -3.512239   -1.014330
H       0.565667   -3.952316   -0.201210
H      -2.005334   -3.141527    1.328784
H       1.807918   -1.135754    1.124760
H       0.224975   -1.071507    2.024009
