17

C      -0.162128    1.567016   -0.036726
C       0.020452    0.078695    0.026857
C      -1.179538   -0.877736    0.134415
O      -0.517929   -1.664284    1.159293
C       0.623768   -0.779156    1.191772
C       1.689396   -1.177104    0.150230
O       1.018427   -0.423297   -0.886655
C       1.011009   -0.337597    2.503042
C       1.350694    0.050965    3.589167
H       0.792012    2.079587    0.111706
H      -0.552749    1.853520   -1.019670
H      -0.867420    1.905920    0.727487
H      -2.103333   -0.427852    0.518966
H      -1.388113   -1.455425   -0.771543
H       2.693051   -0.782982    0.346535
H       1.732279   -2.250760   -0.058790
H       1.645377    0.387010    4.552846
