22

C       0.303690    1.636993    0.198165
C      -0.109570    0.184557   -0.075519
C       0.603486   -0.438654   -1.268654
C       0.333805    0.223453   -2.607501
C       1.925853   -1.101055   -1.046653
N       0.743950   -1.899652   -1.368959
C       0.211934   -2.790528   -0.354054
C       0.640291   -4.221493   -0.650975
O       0.758246   -5.077397    0.185912
H       1.383194    1.713084    0.365526
H       0.047596    2.297491   -0.635116
H      -0.202486    2.019946    1.089384
H       0.083025   -0.409850    0.822554
H      -1.193721    0.142685   -0.248457
H       0.722223    1.246381   -2.635652
H       0.805351   -0.347543   -3.410352
H      -0.742721    0.266448   -2.810306
H       2.702048   -1.067186   -1.807401
H       2.299250   -1.143596   -0.023400
H       0.490119   -2.562232    0.685055
H      -0.887030   -2.776197   -0.408379
H       0.823891   -4.415462   -1.730894
