12

O       0.010310   -0.069861    0.003363
C      -0.011348    1.145078    0.009944
C      -1.236950    1.950801    0.030013
C      -1.197533    3.289989    0.036350
O      -0.041745    4.006462    0.024945
C       1.120641    3.338440    0.006360
C       1.213016    1.987884   -0.001756
C       2.499114    1.374158   -0.021694
N       3.549015    0.888162   -0.037893
H      -2.188782    1.434827    0.039769
H      -2.057147    3.947048    0.050910
H       1.971317    4.008074   -0.001323
