14

N      -0.047930    1.402626    0.020237
C      -0.084288    0.014561   -0.004626
C      -1.150342   -0.835485   -0.009736
N      -2.496101   -0.504710   -0.057918
C      -0.597357   -2.170604   -0.044916
C       0.764253   -2.018704   -0.061301
O       1.097939   -0.724999   -0.047671
C      -1.327342   -3.381053   -0.044159
N      -1.958996   -4.352573   -0.033328
H       0.506634    1.776653    0.783097
H       0.272537    1.819522   -0.848361
H      -2.669889    0.451909    0.221158
H      -3.101215   -1.153061    0.427442
H       1.567470   -2.737036   -0.073502
