15

N      -0.246718    1.401523    0.067178
C      -0.045683   -0.014623    0.019470
C      -1.170531   -0.782863    0.023337
O      -2.407816   -0.276526    0.068546
N      -1.097085   -2.141784   -0.019663
N       0.067450   -2.820018   -0.068146
C       1.154902   -2.118022   -0.073160
C       1.250199   -0.650284   -0.031117
N       2.339110    0.047420   -0.036369
H       0.253804    1.780602    0.870117
H       0.215621    1.829192   -0.734244
H      -2.257740    0.689694    0.094132
H      -1.935233   -2.699959   -0.016002
H       2.074310   -2.697854   -0.112809
H       3.154732   -0.566731   -0.074688
