16

N      -0.097918    1.210205    0.269738
C      -0.032476   -0.031373    0.039382
O       1.154780   -0.725402   -0.205279
C       0.784363   -2.044549   -0.591767
C       1.070518   -3.392897    0.111906
C       0.362375   -3.561092    1.421992
C      -0.469580   -3.627383    0.155239
C      -0.654820   -2.187743   -0.245786
C      -1.160573   -0.998783    0.083424
H       0.833041    1.628677    0.253247
H       0.995164   -2.171732   -1.661718
H       1.841762   -4.081532   -0.209684
H       0.539359   -4.515963    1.908098
H       0.232404   -2.726624    2.103155
H      -1.041941   -4.498594   -0.131006
H      -2.130008   -0.715567    0.465961
