17

C      -0.100772    1.549085    0.014594
C       1.422480    1.253800   -0.002192
C       1.330175    0.158714    1.085177
C       1.839905   -0.960104    0.176714
C       0.808345   -2.101414    0.264375
N      -0.029344   -2.066010    1.490691
C      -0.496564   -1.372082    0.268573
C       0.051573    0.032482    0.196530
N       1.200730   -0.009832   -0.860620
H      -0.488368    2.107745    0.869440
H      -0.536621    1.887877   -0.929031
H       2.237430    1.946954   -0.211728
H       1.365993    0.261123    2.171586
H       2.891080   -1.222788    0.044662
H       0.948037   -3.035594   -0.266759
H      -0.521336   -2.954329    1.573779
H      -1.367110   -1.711754   -0.278121
