17

N      -0.441213   -0.859669   -0.801438
C      -0.264722    0.179447   -0.327083
C      -0.021081    1.502751    0.247755
N       0.250115    1.524490    1.699437
C       1.314554    2.537946    1.511392
C       1.368576    2.171656    0.012709
C       2.554295    1.388946   -0.580255
O       2.761576    2.395795   -1.594203
C       1.647375    3.170983   -1.116779
H      -0.829658    2.173966   -0.079796
H      -0.534731    1.791467    2.282861
H       0.992459    3.577659    1.668551
H       2.218761    2.353873    2.100259
H       3.421442    1.285275    0.083462
H       2.306878    0.412028   -1.011620
H       0.852151    3.264419   -1.868831
H       1.947311    4.175333   -0.788959
