16

O      -0.013263    0.019720    0.212379
C      -0.019497    1.183858   -0.049861
N      -1.157115    2.015532   -0.208177
C      -0.646011    3.344574   -0.106507
C      -0.680850    4.782355   -0.699095
C       0.743559    4.600095   -0.008789
C       0.011035    3.954978    1.185574
C       0.727229    3.207235   -0.718208
O       1.143281    1.924566   -0.241271
H      -1.966333    1.695913    0.305197
H      -0.697759    4.872743   -1.787407
H      -1.338799    5.507051   -0.216596
H       1.536722    5.344806    0.015479
H      -0.618609    4.614629    1.786044
H       0.592017    3.269820    1.803466
H       0.815920    3.226462   -1.807813
