21

C      -0.293752    1.631346   -0.105983
C       0.028167    0.129363    0.002910
C       0.776221   -0.403163   -1.184840
C       2.037117   -0.865930   -1.254734
C       3.033385   -1.027071   -0.149814
C       2.402475   -1.298908   -2.668579
C       1.114374   -1.098468   -3.451485
O       0.020883   -1.896821   -2.993492
C       0.124167   -0.526263   -2.529976
H       0.624475    2.223469   -0.169884
H      -0.892578    1.850917   -0.995996
H      -0.860219    1.972168    0.766234
H       0.598297   -0.049566    0.919982
H      -0.912301   -0.427607    0.113664
H       3.301910   -2.082817   -0.014444
H       3.966608   -0.497942   -0.382996
H       2.664705   -0.650687    0.807096
H       3.216769   -0.685842   -3.079036
H       2.743050   -2.341496   -2.704629
H       1.131560   -0.895785   -4.519067
H      -0.693812    0.118071   -2.839870
