18

O      -0.042548   -0.024132   -0.085368
C       0.019306    1.189100   -0.063705
N       1.169031    1.904203   -0.082527
C       2.498293    1.287137   -0.024952
C       3.374505    2.434330    0.473572
C       3.390026    3.764900   -0.268269
C       2.151690    3.915411   -1.154309
C       1.300317    3.347273    0.032163
C       2.522771    3.567509    0.967017
H      -0.875268    1.843596   -0.025972
H       2.481720    0.441157    0.669017
H       2.803530    0.904747   -1.005954
H       4.279593    2.188755    1.015895
H       4.308133    4.332731   -0.359171
H       1.922602    4.968877   -1.336444
H       2.102919    3.363938   -2.099006
H       0.345988    3.825328    0.246920
H       2.547813    4.015068    1.950919
