23

C      -0.051404    1.572881   -0.004655
C       0.034571    0.046145    0.003500
C       0.784449   -0.561679   -1.203059
C       1.297185   -1.937727   -0.718440
C       1.505592   -1.784217    0.785797
C       1.572394   -3.021527    1.646422
C       2.264428   -0.535804    1.218570
C       0.752279   -0.548882    1.212051
O       0.068244   -0.549724    2.431876
H       0.947677    2.023616   -0.004543
H      -0.583488    1.938291   -0.889165
H      -0.588712    1.942352    0.876198
H      -0.985885   -0.360741    0.032527
H       0.148561   -0.640027   -2.089190
H       1.625810    0.083944   -1.479292
H       0.537845   -2.711397   -0.890771
H       2.202468   -2.255565   -1.248303
H       2.493562   -3.586894    1.463858
H       1.535196   -2.758537    2.706918
H       0.726742   -3.688051    1.440475
H       2.727780   -0.586686    2.198639
H       2.816572    0.053373    0.492723
H       0.198963    0.308173    2.848938
