16

O      -0.896409    0.733366    0.654257
C      -0.039721    0.882116   -0.178575
C       1.188332    1.758611    0.021041
C       1.333144    2.800432   -1.123930
C       1.505270    2.188614   -2.438831
N       1.643454    1.684161   -3.469321
C       1.165267    2.459664    1.361399
C       1.986974    2.010677    2.488353
O       2.367942    3.148890    1.708183
H      -0.096150    0.377147   -1.166445
H       2.065334    1.099049   -0.032843
H       0.460152    3.462746   -1.149533
H       2.205386    3.423636   -0.903338
H       0.249115    3.006850    1.580545
H       1.667540    2.226864    3.505745
H       2.622768    1.133906    2.375251
