18

O      -0.019716    1.451763   -0.099522
C       0.020013    0.035981   -0.033511
C      -1.395350   -0.454105    0.003645
C      -2.514290    0.273636    0.019443
C      -3.736527   -0.608491    0.103454
C      -3.150311   -2.029376   -0.093458
N      -1.689617   -1.840500    0.027636
C      -0.811776   -2.873939    0.117799
O       0.399118   -2.782920    0.192902
H       0.886928    1.768604   -0.069705
H       0.539011   -0.403491   -0.897560
H       0.556504   -0.323279    0.855177
H      -2.531881    1.351869    0.014201
H      -4.240047   -0.506998    1.074039
H      -4.485855   -0.378906   -0.660938
H      -3.505369   -2.748132    0.648759
H      -3.390601   -2.420620   -1.088388
H      -1.338083   -3.848740    0.118052
