21

C       0.365802    0.342811    0.685325
O      -0.731741    0.173295   -0.202594
C      -1.349664   -1.024077   -0.136184
N      -2.333733   -1.261508   -0.887877
C      -2.987436   -2.553768   -0.803990
C      -2.072235   -3.814015   -0.849356
N      -2.164543   -3.904320    0.620553
C      -2.224198   -5.209046    1.238122
C      -3.374663   -3.059980    0.617868
H       0.750671    1.348246    0.510194
H       0.053719    0.256168    1.733348
H       1.161763   -0.385221    0.486156
H      -0.926239   -1.722743    0.599137
H      -3.804435   -2.561046   -1.525486
H      -2.555847   -4.657902   -1.368988
H      -1.060201   -3.677897   -1.246569
H      -1.278632   -5.739469    1.082020
H      -2.375681   -5.104334    2.317889
H      -3.040834   -5.839838    0.837390
H      -3.422975   -2.309980    1.415167
H      -4.311637   -3.641397    0.608966
