13

C       0.026926    1.440119    0.061895
N      -0.077011   -0.006536    0.107683
C      -1.235475   -0.657841   -0.161972
O      -2.291330   -0.140648   -0.462989
C      -1.115688   -2.151199   -0.056234
N      -0.034364   -2.805974    0.258199
O      -0.383173   -4.101167    0.231901
N      -1.749519   -4.183741   -0.120024
N      -2.169865   -3.018020   -0.287706
H       0.763305    1.757446   -0.683692
H      -0.952281    1.832694   -0.212664
H       0.315532    1.844062    1.037785
H       0.734551   -0.555542    0.345885
