20

C       0.121100    1.494991   -0.166829
C       0.057478   -0.029011   -0.011893
C       0.723904   -0.502006    1.291469
O       2.097567   -0.161309    1.382343
C      -1.377182   -0.565904   -0.072435
N      -2.368253    0.053548    0.860379
C      -3.368131    0.278755   -0.217912
C      -2.288190   -0.124447   -1.234669
O      -2.179758   -0.082633   -2.422702
H       1.157809    1.842796   -0.128168
H      -0.287018    1.812510   -1.130923
H      -0.449285    1.989932    0.625321
H       0.600095   -0.492275   -0.846541
H       0.157250   -0.112345    2.151664
H       0.687825   -1.596560    1.344055
H       2.159618    0.782127    1.557112
H      -1.357477   -1.666805   -0.019431
H      -2.690605   -0.572115    1.588510
H      -4.225067   -0.408866   -0.229091
H      -3.742372    1.305940   -0.288537
