22

C       0.026144    1.581378    0.030203
C       0.008411    0.050686    0.022179
C      -1.408496   -0.530241    0.022229
C      -1.444210   -2.062880   -0.047993
C      -2.861736   -2.623268    0.129267
C      -2.855720   -4.111591   -0.191150
O      -2.311578   -4.360276   -1.497443
C      -1.321160   -3.523787   -1.890458
N      -0.847661   -2.503747   -1.314170
H       1.050187    1.968064    0.035705
H      -0.476680    1.987233   -0.854840
H      -0.485397    1.983630    0.912380
H       0.540196   -0.328590   -0.856215
H       0.552214   -0.326779    0.898971
H      -1.942773   -0.207507    0.926482
H      -1.970600   -0.132053   -0.833298
H      -0.808939   -2.450226    0.763717
H      -3.229568   -2.464579    1.148490
H      -3.548417   -2.106463   -0.552283
H      -2.253544   -4.664870    0.541351
H      -3.860540   -4.540743   -0.201948
H      -0.934642   -3.847649   -2.855803
