17

C      -0.051923    1.568010   -0.026291
C       1.483308    1.430653   -0.004160
C       1.336176    0.080324    0.787812
C      -0.025343    0.026999    0.003161
C       0.690017   -0.425403   -1.279616
O       1.382367   -1.601831   -0.858114
C       2.273005   -0.930595    0.020036
O       3.002055   -0.094876   -0.865970
C       1.876356    0.678363   -1.285371
H      -0.445319    1.995656    0.898759
H      -0.517430    2.063863   -0.884407
H       2.152012    2.230464    0.309527
H       1.331768    0.090730    1.874229
H      -0.869580   -0.580838    0.324193
H       0.126053   -0.602425   -2.192177
H       2.918986   -1.622114    0.554202
H       2.088779    1.223690   -2.201698
