17

C       0.045028    1.361864    0.346751
C       0.026605   -0.144229    0.295672
O       1.004610   -0.846247    0.301957
C      -1.392105   -0.762739    0.243788
O      -2.399777   -0.103570    0.305686
O      -1.341293   -2.089660    0.127809
C      -2.607048   -2.787190    0.117514
C      -2.268572   -4.259371   -0.036667
O      -1.479203   -4.735968    1.031859
H       1.075360    1.714181    0.393984
H      -0.459585    1.772957   -0.533781
H      -0.522560    1.714187    1.213756
H      -3.123024   -2.591596    1.062147
H      -3.224025   -2.413703   -0.705898
H      -3.197770   -4.838541   -0.032393
H      -1.778573   -4.418696   -1.009748
H      -0.674716   -4.204839    1.043267
