18

C      -0.213143   -1.291199   -0.031665
C      -0.105179   -0.093740   -0.001911
C      -0.006878    1.367743    0.012419
C      -0.822842    1.952693    1.191396
C      -0.103496    1.742906    2.501063
C       1.226314    1.785585    2.557843
C       2.013740    2.091666    1.337983
C       2.489475    1.026630    0.410282
N       1.383548    1.906607    0.023258
H      -0.308497   -2.348507   -0.062101
H      -0.450347    1.728115   -0.924645
H      -0.976859    3.024684    1.009489
H      -1.812704    1.489400    1.204928
H      -0.695535    1.555026    3.391550
H       1.764186    1.645530    3.491591
H       2.610081    3.003453    1.399759
H       3.405998    1.165042   -0.157951
H       2.254186   -0.002217    0.666277
