18

C      -0.529173    1.368861   -0.004168
C       0.091566   -0.014836   -0.024740
O       1.359755   -0.064849   -0.753377
C       2.060319   -0.533154    0.405448
C       3.150280   -1.559381    0.348406
C       3.462787   -0.127095    0.738534
C       0.821206   -0.493983    1.215074
N       0.575392   -0.763626    2.424997
O      -0.789505   -0.571212    2.716056
H       0.168606    2.101454    0.409913
H      -0.792684    1.674262   -1.021249
H      -1.435090    1.359354    0.608231
H      -0.610974   -0.756732   -0.426146
H       3.162282   -2.326598    1.114977
H       3.451222   -1.885028   -0.641417
H       3.970607    0.491922    0.006902
H       3.689666    0.096329    1.775337
H      -0.833387   -0.803609    3.649779
