18

O      -0.222233    1.279724   -0.290501
C      -0.138493   -0.101169   -0.103787
C      -0.393384   -0.627092    1.288235
O      -0.748169    0.343425    2.242542
C      -1.407345   -0.886574    0.198011
C      -2.754907   -0.194967    0.192538
C      -3.178352    0.178050   -1.245638
C      -4.506318    0.784373   -1.298717
N      -5.559315    1.260305   -1.321007
H      -0.420222    1.658229    0.577993
H       0.629375   -0.552588   -0.724683
H       0.178501   -1.465974    1.677968
H       0.046946    0.581476    2.731931
H      -1.419618   -1.909467   -0.171189
H      -3.509619   -0.847108    0.643523
H      -2.724995    0.710134    0.801509
H      -2.447284    0.878898   -1.660944
H      -3.177496   -0.710251   -1.888091
