14

C      -0.037743    1.548279   -0.024667
C      -0.004321    0.047646   -0.020942
C      -0.096826   -0.731095   -1.163757
N      -0.067549   -2.073181   -1.169007
C       0.059273   -2.642258    0.022391
N       0.158509   -2.018850    1.200778
C       0.125892   -0.693638    1.165501
O       0.223127   -0.033007    2.332098
H       0.877359    1.966843    0.407637
H      -0.144182    1.931490   -1.042875
H      -0.871076    1.928294    0.575864
H      -0.200401   -0.248681   -2.134358
H       0.086040   -3.728753    0.051440
H       0.304052   -0.709682    3.020039
