17

C       0.532393    0.400902    0.841132
O       0.049118   -0.758203    0.193688
C      -1.345641   -0.930912    0.325320
C      -1.708131   -2.315871   -0.187168
O      -1.406748   -3.382297    0.703954
C      -0.040524   -3.635288    0.936276
C       0.479563   -2.920150    2.118771
N       0.872844   -2.387453    3.065826
H       1.604458    0.459200    0.641329
H       0.045948    1.308881    0.453209
H       0.376152    0.346515    1.927296
H      -1.661151   -0.829762    1.375326
H      -1.887977   -0.171626   -0.264592
H      -2.789617   -2.377239   -0.337665
H      -1.211932   -2.475755   -1.156394
H       0.060931   -4.710310    1.123719
H       0.581114   -3.373456    0.071506
