23

C      -0.022337    1.420722   -0.129788
C       1.350824    0.816876    0.066639
C       2.119828    1.064492    1.352655
C       2.764794   -0.182556    2.010662
C       2.082328   -1.547529    1.775428
C       0.582318   -1.678128    2.021115
C      -0.258461   -0.579810    2.629686
C      -0.389288   -0.897725    1.156986
C       0.127932   -0.075607    0.012118
H      -0.442360    1.958258    0.715208
H      -0.293440    1.830474   -1.097077
H       1.974345    0.768405   -0.822755
H       2.905324    1.803554    1.153790
H       1.455609    1.552090    2.070920
H       3.797873   -0.286365    1.657360
H       2.840162    0.001954    3.089118
H       2.283550   -1.865860    0.743843
H       2.599618   -2.275106    2.412795
H       0.279816   -2.691134    2.274327
H      -1.087723   -0.873811    3.264995
H       0.220190    0.333463    2.953518
H      -1.309061   -1.420011    0.903737
H       0.037734   -0.619419   -0.926288
