21

O      -0.014690    1.421604   -0.270545
C       0.054647    0.001198   -0.256969
C      -1.324566   -0.523508    0.140543
C      -2.356784   -0.232099   -0.958866
O      -2.172067   -1.275438   -1.910066
C      -1.932934   -2.475892   -1.186619
C      -1.394930   -2.051905    0.190804
C      -0.419686   -2.909650    0.953719
C      -1.846441   -2.781758    1.429449
H       0.812551    1.760446   -0.624003
H       0.322208   -0.396379   -1.247542
H       0.811683   -0.349295    0.460458
H      -1.606817   -0.065392    1.093451
H      -3.379541   -0.248158   -0.549154
H      -2.189389    0.721980   -1.462055
H      -2.863105   -3.057008   -1.081877
H      -1.220300   -3.076643   -1.762939
H      -0.111106   -3.849199    0.505473
H       0.356594   -2.424941    1.536525
H      -2.034289   -2.204869    2.329270
H      -2.505571   -3.635188    1.301373
