21

C       0.098754    1.582452   -0.043486
C      -0.003171    0.056785    0.062322
O       0.625673   -0.278320    1.307750
C      -1.462889   -0.434637    0.050855
C      -2.338521    0.115651    1.172584
O      -3.555999   -0.617378    1.145078
C       0.765553   -0.617454   -1.101781
C       2.235151   -0.254136   -1.148364
O       2.826540    0.055652   -2.151929
H       1.145504    1.898733   -0.061756
H      -0.382102    1.939083   -0.958793
H      -0.377049    2.062930    0.814160
H       0.508013   -1.223680    1.455465
H      -1.924036   -0.204351   -0.916163
H      -1.466466   -1.529963    0.138203
H      -1.817358   -0.000027    2.133807
H      -2.523386    1.189967    1.024183
H      -4.127824   -0.273213    1.837332
H       0.704993   -1.708460   -0.967164
H       0.315980   -0.382031   -2.070810
H       2.751259   -0.305064   -0.166143
