17

C       0.176349    1.611451   -0.074290
C      -0.038312    0.105867    0.083132
N       0.632047   -0.430899    1.256684
N       1.986985   -0.538374    1.270623
C       2.216730   -1.021303    2.478786
N       1.110421   -1.229693    3.240228
C       0.123626   -0.845592    2.442368
C      -1.328277   -0.868075    2.786473
H       1.244026    1.833041   -0.139980
H      -0.312514    1.967335   -0.985996
H      -0.238554    2.159903    0.776660
H      -1.101239   -0.131761    0.174846
H       0.348388   -0.428603   -0.789257
H       3.218375   -1.234822    2.821750
H      -1.774266    0.131597    2.750090
H      -1.898777   -1.511702    2.107973
H      -1.434084   -1.256353    3.799859
