16

C       0.026049    1.510415   -0.278577
N       0.051512    0.064384   -0.066344
C      -1.020251   -0.493245    0.802836
C      -0.113110   -1.706403    1.213792
C       0.770882   -0.411249    1.146669
C      -0.379561   -0.020525    2.198670
O      -0.568326    1.133417    2.904822
C      -0.406205   -1.455673    2.680661
O      -0.576554   -2.042822    3.709566
H       0.991092    1.824225   -0.689637
H      -0.742501    1.744878   -1.022293
H      -0.175287    2.095483    0.631116
H      -2.075733   -0.533167    0.533786
H       0.040493   -2.604523    0.627964
H       1.850162   -0.353362    1.287476
H      -0.732286    0.893725    3.825985
