21

C      -0.472709    1.416009    0.835702
C       0.138311    0.094055    0.396453
C      -0.683751   -1.103068    0.854493
C       0.638249    0.033618   -1.070694
C       2.034900   -0.160082   -0.459227
C       3.123585    0.852601   -0.778588
O       1.519524   -0.011337    0.891796
C       2.582562   -1.578827   -0.565293
O       2.246426   -2.397268   -1.381328
H       0.149654    2.257786    0.520044
H      -1.470859    1.540872    0.402067
H      -0.566212    1.450111    1.925947
H      -1.695266   -1.056815    0.436665
H      -0.223415   -2.041128    0.533107
H      -0.763446   -1.114527    1.946289
H       0.288268   -0.810084   -1.666328
H       0.514371    0.962273   -1.630533
H       2.755026    1.866889   -0.603025
H       4.000001    0.693562   -0.141080
H       3.435182    0.765766   -1.825099
H       3.328367   -1.812019    0.228651
