16

N       0.048373   -1.024211    0.665356
C       0.043523    0.090841    0.360909
C       0.057361    1.498161   -0.053285
O      -0.442241    2.390782    0.956089
C       0.848068    3.076691    1.047661
C       1.655699    2.704854    2.256792
C       2.629618    1.846781    1.950560
C       2.675275    1.487579    0.481579
C       1.444990    2.211508   -0.092874
H      -0.520017    1.586903   -0.981358
H       0.708711    4.151605    0.897771
H       1.440444    3.093492    3.244812
H       3.335630    1.430333    2.660936
H       3.601681    1.837856    0.010123
H       2.638486    0.403135    0.324117
H       1.627516    2.705697   -1.045705
