16

C       0.135991   -1.190216    0.805721
C      -0.000587   -0.080562    0.365426
C      -0.192731    1.267524   -0.173787
N       1.092149    1.984549   -0.242174
C       1.604854    2.811162   -1.289213
C       0.581151    3.889802   -1.828305
O      -0.677228    3.705268   -1.169854
C       0.368966    4.398545   -0.479933
C       1.384854    3.338638    0.108825
H       0.260992   -2.169909    1.195205
H      -0.646155    1.206209   -1.167397
H      -0.901289    1.817681    0.452217
H       2.523823    2.546278   -1.801033
H       0.588308    4.385629   -2.790906
H       0.166679    5.396516   -0.111651
H       2.099859    3.562801    0.893136
