18

C      -0.278196    1.361860    0.298445
O       0.107375    0.001142    0.301760
C       0.563226   -0.461803   -0.953970
C       1.288343   -1.795667   -0.737165
C       2.533263   -1.652369    0.145485
O       3.216434   -2.883500    0.311394
C      -0.612493   -0.682686   -1.903766
O      -0.530116   -0.681634   -3.103258
H       0.564191    2.017656    0.032640
H      -1.102008    1.559858   -0.403547
H      -0.613558    1.603758    1.309209
H       1.250838    0.262637   -1.419557
H       0.589023   -2.504064   -0.272854
H       1.575021   -2.204825   -1.710836
H       3.249665   -0.977044   -0.335889
H       2.255123   -1.205676    1.108719
H       2.667891   -3.454766    0.858137
H      -1.570809   -0.888043   -1.370739
