23

C       0.239108    1.595494    0.220979
C       0.171851    0.070430    0.107163
C       0.552398   -0.444432   -1.289017
C       0.526566   -1.951471   -1.413857
C       1.729698   -2.777849   -0.970058
C       1.334216   -2.714722   -2.425601
O       0.592619   -3.773097   -2.973035
C      -0.521891   -4.010998   -2.113436
C      -0.814412   -2.681469   -1.383848
H       1.250298    1.963902    0.014157
H      -0.438331    2.077034   -0.493216
H      -0.039415    1.934436    1.223689
H       0.837472   -0.386746    0.850284
H      -0.840986   -0.270528    0.356652
H      -0.127507   -0.006793   -2.034285
H       1.557033   -0.079292   -1.541459
H       2.618079   -2.227410   -0.676511
H       1.579608   -3.701619   -0.421242
H       1.979227   -2.247426   -3.161183
H      -1.353453   -4.362913   -2.730272
H      -0.280053   -4.804873   -1.392826
H      -1.208419   -2.854574   -0.377778
H      -1.553147   -2.086704   -1.934037
