16

N      -0.055476    1.328472    0.065905
C      -0.027165    0.069893   -0.004401
O      -1.177586   -0.633867    0.001779
C      -1.095632   -2.049510    0.043184
C      -1.572521   -2.769905    1.331394
N      -2.576455   -3.584446    0.557576
C      -3.504270   -2.595368   -0.010660
C      -2.205417   -2.779698   -0.687682
H       0.891457    1.699742    0.028864
H       0.869372   -0.561822   -0.085015
H      -0.098617   -2.377188   -0.269229
H      -0.818219   -3.415261    1.785001
H      -2.017719   -2.125337    2.094953
H      -4.368264   -3.048855   -0.485839
H      -3.708030   -1.677284    0.534894
H      -2.113897   -3.240718   -1.665181
