17

C      -0.085367    1.584294   -0.032606
C      -0.050745    0.045353   -0.005594
C       0.767965   -0.496916    1.206915
C       2.166764   -0.103467    1.175300
C       3.331911    0.222762    1.132294
C       4.642085    0.587747    1.087660
C       5.804701    0.911885    1.047631
C      -1.397828   -0.519104    0.022715
C      -2.507239   -0.979429    0.072273
H       0.931519    1.983765   -0.067672
H      -0.633295    1.940260   -0.908276
H      -0.583073    1.973851    0.860748
H       0.452057   -0.304342   -0.916315
H       0.299926   -0.141862    2.133886
H       0.693581   -1.590487    1.222907
H       6.826994    1.196026    1.013580
H      -3.487503   -1.386892    0.099764
