20

C       0.176005    1.515539   -0.320541
C       0.072432    0.035859   -0.061315
O       1.310515   -0.694435    0.035146
C       0.499645   -0.591869    1.191931
C       0.959814    0.061610    2.505923
C       0.190555   -1.050491    3.244150
C       0.402656   -1.564034    4.610763
N      -0.841424   -0.842760    4.257501
C      -0.091729   -1.800559    1.931864
H       0.939946    1.972346    0.313833
H       0.442701    1.705140   -1.365505
H      -0.783303    2.007536   -0.125157
H      -0.692735   -0.485998   -0.640206
H       2.045195    0.018424    2.639057
H       0.620424    1.086953    2.686763
H       0.269936   -2.621493    4.824922
H       1.137491   -1.064546    5.238100
H      -0.796437    0.110597    4.611278
H      -1.142326   -2.032046    1.740234
H       0.511045   -2.704336    1.800086
