17

O       0.122177    1.405444    0.085659
C       0.046864    0.034361   -0.188146
C      -1.364796   -0.473696   -0.073487
N      -2.332018    0.322228    0.186924
C      -3.567232   -0.497221    0.175479
C      -3.064001   -1.978711    0.170101
N      -1.684811   -1.799884   -0.304447
C      -4.466299   -0.197543    1.282544
C      -5.218116    0.018454    2.194242
H      -0.792562    1.689400    0.241343
H       0.414800   -0.188740   -1.203001
H       0.688239   -0.533654    0.506699
H      -4.093488   -0.288708   -0.766977
H      -3.096743   -2.403824    1.180570
H      -3.644907   -2.615369   -0.500485
H      -1.002653   -2.503389   -0.058664
H      -5.879404    0.225332    2.999040
