17

C      -0.121187    1.531283    0.073241
C      -0.023672    0.033892    0.076649
N      -1.265702   -0.798448    0.150355
C      -0.308181   -1.914456    0.534360
C       0.765487   -0.878470    1.053838
N       1.949313   -1.009251    0.154798
C       0.940241   -0.723223   -0.943781
C       0.261361   -2.098851   -0.881721
O       0.190849   -2.996651   -1.664673
H       0.874354    1.988004    0.061387
H      -0.665509    1.879113   -0.810760
H      -0.647506    1.894827    0.962865
H      -1.777039   -0.514626    0.987110
H      -0.684842   -2.772366    1.084029
H       0.907757   -0.730128    2.125212
H       2.531831   -0.181798    0.280268
H       1.287283   -0.330187   -1.896182
