21

C       0.050680    1.508659    0.070550
C       1.354489    0.735068    0.087182
C       0.045631    0.011955    0.014982
C      -0.601419   -0.922361    1.080258
C      -1.449726   -1.426494   -0.068357
C      -2.690689   -1.630310   -0.494152
C      -2.757347   -1.346600   -1.994096
C      -1.510125   -0.432299   -2.241064
C      -0.535138   -0.866385   -1.129831
H      -0.268395    1.991196    0.989249
H      -0.202848    2.058844   -0.830236
H       1.974711    0.761562   -0.803499
H       1.913733    0.696635    1.016972
H       0.113626   -1.658670    1.465787
H      -1.122028   -0.459043    1.923306
H      -3.562405   -1.873175    0.102679
H      -2.703224   -2.267196   -2.593100
H      -3.692981   -0.851698   -2.276930
H      -1.106141   -0.528367   -3.253158
H      -1.802044    0.614026   -2.095459
H       0.222123   -1.575806   -1.490320
