16

C      -0.019873    1.485691    0.068414
C      -0.000461   -0.006447   -0.043861
C      -0.018273   -0.714979   -1.185517
C       0.003761   -2.178769   -1.176156
N      -0.013786   -2.833139   -2.278239
N       0.044481   -2.805385    0.089875
C       0.059583   -2.069961    1.138029
O       0.098180   -2.603098    2.372371
N       0.039894   -0.707198    1.161834
H       0.871888    1.855496    0.589250
H      -0.051320    1.939847   -0.922504
H      -0.895194    1.829192    0.633287
H      -0.049530   -0.217533   -2.145583
H       0.006402   -3.832568   -2.064793
H       0.109211   -3.561649    2.240282
H       0.055011   -0.231424    2.049047
