13

N       0.087627    1.377469    0.169897
C      -0.002720    0.013335    0.060445
C      -1.162971   -0.692680    0.023875
F      -2.307538    0.009245    0.021747
C      -1.211308   -2.141260   -0.017564
O      -2.240038   -2.800138   -0.054097
C       0.144267   -2.722418   -0.020451
C       1.240187   -1.956018    0.003434
O       1.203627   -0.594904    0.045186
H       0.915168    1.785671   -0.240075
H      -0.768741    1.862975   -0.052082
H       0.235042   -3.800978   -0.051042
H       2.263403   -2.307031   -0.004913
