21

C      -0.389504    1.467656    0.056480
C      -0.011003   -0.025946   -0.036880
C       0.738006   -0.359562   -1.308438
C       1.988413    0.046693   -1.596015
C       2.904303    0.718912   -0.704515
C       2.916163    0.641683    0.648856
C       2.035608   -0.149459    1.490557
C       2.635117   -0.595593    2.808435
C       0.778217   -0.511814    1.159683
H       0.501094    2.099067    0.080174
H      -0.996346    1.762875   -0.806052
H      -0.968113    1.656823    0.966763
H      -0.949272   -0.591127   -0.053464
H       0.202608   -0.942233   -2.054726
H       2.372908   -0.163809   -2.592380
H       3.719173    1.262243   -1.178008
H       3.743953    1.126725    1.163535
H       3.533429   -1.205520    2.656554
H       2.940419    0.271117    3.408083
H       1.923417   -1.177659    3.398640
H       0.256444   -1.190466    1.831609
