19

C       0.120205    1.298978    0.063836
O      -0.057202   -0.101056   -0.062306
C       0.611515   -0.651689   -1.149780
O       2.050777   -0.584573   -1.000932
C       2.409535   -1.977306   -0.978065
C       1.593674   -2.569122   -2.152024
C       0.414187   -2.165968   -1.210005
C       1.336131   -2.586096   -0.023047
O       1.356288   -3.985975    0.132810
H       1.169800    1.552585    0.252614
H      -0.213699    1.826527   -0.842499
H      -0.490672    1.623566    0.908688
H       0.336585   -0.114288   -2.070848
H       3.486064   -2.085526   -0.847656
H       1.682895   -2.065140   -3.116998
H       1.690342   -3.648520   -2.248575
H      -0.603147   -2.536068   -1.318488
H       1.186109   -2.059448    0.924361
H       2.044478   -4.202002    0.769775
