18

N       0.022460   -1.164505    0.044150
C      -0.017850   -0.007718    0.032805
C      -0.071216    1.428111    0.022499
C      -1.119311    2.257347    0.787275
C      -0.647970    3.394679   -0.154702
C       0.788519    3.634134    0.359733
C       1.314217    2.242877   -0.045258
C       1.153854    2.288729   -1.587573
C      -0.344960    2.295281   -1.265381
H      -2.126340    1.900619    0.556687
H      -1.006474    2.395447    1.866253
H      -1.279114    4.256268   -0.362498
H       1.323789    4.434754   -0.157973
H       0.816736    3.833137    1.434280
H       2.211458    1.854674    0.432592
H       1.596605    3.136442   -2.118289
H       1.444779    1.351982   -2.070151
H      -1.134184    2.046961   -1.972531
