19

C       0.172857    1.496964    0.013629
C       0.093076   -0.005185    0.047122
N       0.054980   -0.694287    1.120358
O       0.074780    0.115529    2.260167
C       0.011858   -0.795570   -1.263770
C       0.091897   -2.320887   -1.047715
C      -1.309846   -0.434396   -1.993538
C       1.142890   -0.382224   -2.117326
N       2.022627   -0.059285   -2.794247
H       0.938127    1.841305    0.713850
H       0.410051    1.868072   -0.984351
H      -0.774622    1.938920    0.341220
H       0.079974   -0.533452    2.972127
H      -0.743710   -2.648499   -0.427181
H       0.045213   -2.831537   -2.012882
H       1.018404   -2.599381   -0.543748
H      -1.392158    0.639625   -2.174720
H      -1.362123   -0.947601   -2.957104
H      -2.155834   -0.752361   -1.378143
