21

C      -0.361936    1.496801   -0.137290
C      -0.073880    0.002194   -0.056073
C       1.162116   -0.467301   -0.886103
C       1.995474   -0.557588    0.409067
O       2.775854    0.617949    0.548874
C       3.110254    0.918985    1.892486
C       1.909084    0.954692    2.801631
C       0.773679    0.338701    2.476939
C       0.685929   -0.490234    1.237332
H       0.541699    2.080910    0.054606
H      -0.731595    1.760336   -1.134759
H      -1.122001    1.798556    0.591606
H      -0.989513   -0.561437   -0.257615
H       1.016718   -1.444731   -1.353265
H       1.551331    0.232251   -1.629534
H       2.624466   -1.448453    0.553108
H       3.862039    0.204754    2.276207
H       3.595977    1.900914    1.864776
H       2.009664    1.512848    3.728538
H      -0.098425    0.402552    3.123405
H       0.345748   -1.501765    1.488471
