18

C      -0.064345   -1.231406   -0.002621
C      -0.052331   -0.029484    0.013654
C      -0.003516    1.428229    0.031001
C       1.428526    1.997843   -0.016376
C       2.146304    1.628599   -1.311955
O       3.459635    2.202543   -1.360734
C       3.577712    3.444943   -0.833494
N       2.734886    4.129525   -0.186393
C       1.439316    3.526977    0.111479
H      -0.088901   -2.292964   -0.012462
H      -0.579896    1.824869   -0.816289
H      -0.502320    1.799589    0.935472
H       2.000251    1.571977    0.816953
H       2.281439    0.550266   -1.412042
H       1.576018    1.989299   -2.179902
H       4.572737    3.836463   -1.037417
H       0.685072    3.969169   -0.555937
H       1.154542    3.825222    1.127408
