15

C       0.008707    1.473643   -0.154351
C      -0.003586   -0.049118    0.085129
C       0.752953   -0.439418    1.359894
C      -1.412189   -0.555748    0.094704
N      -2.025654   -1.117669    1.096484
O      -3.269750   -1.392824    0.634706
N      -3.360198   -0.967340   -0.687579
N      -2.254126   -0.468762   -1.007777
H       1.039311    1.826817   -0.250315
H      -0.532494    1.735797   -1.066909
H      -0.455762    2.001505    0.684877
H       0.483060   -0.523865   -0.777157
H       0.759228   -1.522373    1.507470
H       1.788075   -0.092801    1.296455
H       0.293768    0.014839    2.242789
