19

C       0.857802   -0.685204    1.137628
C      -0.019318   -0.103472    0.017977
N      -1.386751   -0.629657   -0.096226
C      -1.476834   -2.052478   -0.434936
C      -0.780606   -2.387199   -1.673369
C      -0.209663   -2.694398   -2.684573
C      -2.252392   -0.321061    1.032119
C      -2.397111    1.124920    1.238677
N      -2.515092    2.258628    1.425093
H       1.839960   -0.203181    1.116676
H       0.433536   -0.512351    2.132020
H       1.019012   -1.760934    1.016224
H      -0.104260    0.980643    0.142787
H       0.462422   -0.272530   -0.948820
H      -1.100969   -2.710291    0.371891
H      -2.540459   -2.298246   -0.552024
H       0.289180   -2.959752   -3.583976
H      -3.249990   -0.729007    0.829091
H      -1.926777   -0.764921    1.991896
