25

C       0.206650    1.266294   -0.493403
O       0.072668   -0.097010   -0.166494
C      -1.265982   -0.559942    0.022650
C      -2.021458   -0.694928   -1.300745
C      -1.111043   -1.919905    0.731541
O      -0.296001   -2.762733   -0.076830
C      -0.563869   -1.822097    2.174434
C      -1.494998   -1.026314    3.101285
C      -0.318401   -3.225699    2.745292
H       1.275937    1.492931   -0.496540
H      -0.202331    1.505793   -1.484861
H      -0.288899    1.909603    0.249763
H      -1.799971    0.145053    0.676141
H      -1.540231   -1.447405   -1.929738
H      -3.052972   -1.009607   -1.112153
H      -2.060889    0.253409   -1.843694
H      -2.096714   -2.403406    0.765851
H       0.474916   -2.228932   -0.308705
H       0.398301   -1.296769    2.114334
H      -2.502633   -1.460458    3.114454
H      -1.118121   -1.047876    4.128901
H      -1.586350    0.024319    2.811632
H       0.319018   -3.812277    2.081733
H       0.156176   -3.166520    3.730208
H      -1.264660   -3.768158    2.865877
