20

C      -0.156684    1.049042   -0.206315
C       0.980240    1.792459    0.533510
C       2.160579    0.787307    0.573000
C       2.715025    0.401916    1.967562
C       1.973200   -0.867399    2.353494
N       0.507654   -0.721791    2.241827
C       1.264397   -1.407113    1.166884
C       1.542185   -0.508956   -0.031241
O       0.415893   -0.121888   -0.791446
H      -0.953992    0.772470    0.491653
H      -0.592134    1.635502   -1.021867
H       1.266442    2.705073    0.004218
H       0.663819    2.073516    1.539525
H       2.967764    1.151248   -0.065568
H       3.787767    0.185238    1.906543
H       2.585698    1.200563    2.705463
H       2.374614   -1.517697    3.124620
H       0.052571   -1.423826    2.819687
H       1.109066   -2.470709    1.018085
H       2.222821   -1.028718   -0.715400
