19

C       0.024422    1.556996    0.196440
C       1.297841    0.778971   -0.021165
C      -0.035998    0.063225   -0.027405
C      -0.312590   -0.570243   -1.386425
C      -0.304774    0.454267   -2.534296
C       1.189544    0.714636   -2.660484
C       1.824186   -0.550440   -2.148890
O       0.815853   -1.424226   -1.692875
C       1.987250    0.732603   -1.355003
H      -0.177537    1.899496    1.205644
H      -0.310440    2.241399   -0.573309
H       1.949935    0.639842    0.835907
H      -0.290431   -0.557204    0.825178
H      -1.197691   -1.208328   -1.371702
H      -0.673905   -0.009024   -3.455539
H      -0.919285    1.331660   -2.327215
H       1.576101    1.246041   -3.521729
H       2.652517   -1.073048   -2.609892
H       2.957312    1.215822   -1.417059
