21

C      -0.146583    1.427996    0.023919
C       1.284201    1.924974    0.072968
C       2.159047    0.980023   -0.293384
C       3.523166    0.783561    0.290303
C       3.333187   -0.347335    1.376055
C       1.848622   -0.569239    1.779138
C       1.014646   -0.942394    0.542456
C       0.036584   -0.061321   -0.258124
C       1.448999   -0.267679   -0.735260
H      -0.648615    1.626699    0.980679
H      -0.765870    1.903134   -0.750728
H       1.558928    2.848505    0.573625
H       4.275607    0.467951   -0.441183
H       3.882378    1.707172    0.754574
H       3.714912   -1.292075    0.973514
H       3.936328   -0.117988    2.260664
H       1.799528   -1.381717    2.511940
H       1.455971    0.318135    2.284323
H       0.768300   -1.998869    0.466746
H      -0.780356   -0.600433   -0.725627
H       1.745079   -0.813593   -1.625324
