18

O      -0.213650    1.183181    1.037156
C      -0.138206    0.075902    0.156358
C       0.840573   -0.956822    0.749194
N       0.077220   -1.956573    1.524624
C      -0.866738   -1.375104    2.495726
C      -1.336473   -1.806294    1.151276
C      -1.461125   -0.734179    0.061454
C      -2.745195    0.054002    0.133942
O      -2.831083    1.259428    0.196926
H      -0.999100    1.687725    0.778500
H       0.181640    0.405085   -0.842596
H       1.361421   -1.493239   -0.050922
H       1.586466   -0.462330    1.376516
H      -1.067501   -2.011338    3.353078
H      -0.805412   -0.311460    2.699138
H      -1.915172   -2.718402    1.033850
H      -1.491451   -1.260314   -0.905600
H      -3.667485   -0.567186    0.116591
