16

C      -0.021888    1.524709   -0.206619
C       0.020091    0.021595   -0.013882
O       0.658136   -0.542106   -1.178089
C       0.776488   -1.876105   -1.201993
N       0.372660   -2.627223   -0.256910
C       1.417762   -2.333253   -2.406876
C       1.948991   -2.786066   -3.393369
C       2.614860   -3.301525   -4.566309
O       2.083379   -4.004704   -5.392587
H       0.986941    1.934036   -0.308447
H      -0.593346    1.788408   -1.100793
H      -0.499083    1.993226    0.659037
H       0.590072   -0.267545    0.874881
H      -0.979813   -0.412743    0.085304
H       0.542726   -3.607204   -0.470945
H       3.676000   -2.994666   -4.654194
