15

O       0.378465    1.274085    0.455246
C       0.148722   -0.020703   -0.017706
C      -1.317997   -0.632518    0.107133
N      -1.300015   -0.738427   -1.367407
C      -1.655285   -1.374868   -2.537907
C      -0.547006   -1.153140   -3.345718
O      -0.435587   -1.508456   -4.642502
N       0.473294   -0.495246   -2.703251
C      -0.042891   -0.272374   -1.508187
H      -0.107366    1.889846   -0.105038
H       0.899950   -0.657759    0.456715
H      -1.371541   -1.598106    0.617710
H      -2.079737    0.047915    0.496433
H      -2.612989   -1.819698   -2.738176
H       0.446479   -1.233915   -4.921794
