16

O       0.037163    1.362675    0.133857
C       0.041815   -0.000299    0.004430
C      -0.283070   -0.832874    1.192585
C      -1.181578   -1.006778   -0.029531
C      -2.569399   -0.694370   -0.012292
N      -3.697156   -0.428508   -0.019145
C      -0.464764   -1.782311   -1.110727
C      -0.192471   -0.916466   -2.306325
C       0.703980   -0.786543   -1.095354
H      -0.115893    1.755807   -0.733443
H       0.353443   -1.659821    1.495174
H      -0.735968   -0.279520    2.009123
H      -0.382641   -2.861961   -1.139934
H       0.254342   -1.417902   -3.159111
H      -0.888773   -0.125428   -2.571070
H       1.761932   -1.018185   -1.137910
