18

C      -0.055279    1.501949   -0.041740
C       0.064484   -0.002476   -0.206405
O       1.126114   -0.528862   -0.474426
C      -1.201661   -0.775713   -0.028627
C      -1.350450   -2.112688   -0.740628
C      -1.230884   -2.099213    0.743250
C      -0.015023   -2.656874    1.439695
O      -0.252125   -4.049073    1.626454
H       0.920082    1.970712   -0.175210
H      -0.762892    1.906416   -0.774923
H      -0.454003    1.745792    0.949739
H      -2.094420   -0.167620    0.072932
H      -2.307830   -2.335035   -1.197413
H      -0.477661   -2.428654   -1.302031
H      -2.150022   -2.255822    1.301459
H       0.879539   -2.471858    0.835343
H       0.121776   -2.149427    2.408954
H       0.543000   -4.432953    2.007410
