16

C       0.016276    1.571096   -0.007462
C      -0.004650    0.029831    0.046919
C       0.758427   -0.505502    1.272931
O       2.105212   -0.081584    1.148941
C      -1.364824   -0.493473    0.035279
C      -2.496400   -0.924190    0.035081
C      -3.769594   -1.404915    0.036784
C      -4.898956   -1.832834    0.038225
H       1.049964    1.921114    0.014856
H      -0.466165    1.933223   -0.918429
H      -0.516451    1.991785    0.850912
H       0.522109   -0.353653   -0.838261
H       0.289974   -0.113031    2.188499
H       0.679992   -1.601928    1.298463
H       2.585896   -0.366116    1.931333
H      -5.892258   -2.207038    0.039201
