20

C      -0.373004    1.315930   -0.032510
N       0.029967   -0.083966   -0.042698
C       0.838935   -0.436695   -1.206341
C       0.477528   -1.813078   -1.761241
C       0.596297   -2.974573   -0.825582
C       0.781151   -3.010838    0.500373
C       0.929622   -1.927316    1.496938
O       1.278009   -2.217674    2.627336
C       0.662362   -0.446963    1.211638
H       0.476033    2.019916    0.057647
H      -0.914844    1.552843   -0.952776
H      -1.047407    1.498301    0.810050
H       0.666840    0.301820   -1.995392
H       1.918484   -0.396535   -0.973262
H      -0.557806   -1.786419   -2.132118
H       1.097988   -2.019504   -2.645016
H       0.518977   -3.941723   -1.322030
H       0.872502   -3.982337    0.979825
H       1.637409    0.063861    1.353404
H       0.028856   -0.110798    2.038626
