18

O      -0.063118    1.339310    0.050855
C       0.017046   -0.062054    0.042390
C       0.842598   -0.712833    1.159083
C       0.311540   -2.176611    1.188507
C      -0.818657   -2.175788    0.156254
C      -1.384422   -0.749894    0.000839
C      -1.223784   -0.937790   -1.541137
C       0.220624   -0.689543   -1.350736
N      -0.318866   -2.094443   -1.274260
H       0.808329    1.692115   -0.159051
H       1.918304   -0.654450    0.960794
H       0.653223   -0.191326    2.102970
H       1.074374   -2.912218    0.916723
H      -0.064080   -2.447158    2.180164
H      -1.533587   -2.995949    0.235761
H      -2.220419   -0.338534    0.562043
H      -1.879622   -0.868195   -2.397507
H       1.007115   -0.503909   -2.073331
