11

O      -0.148824    0.244303    0.745724
C       0.172942    0.937221   -0.183280
C       1.312232    1.925706   -0.103654
C       1.550670    2.611559    1.199526
O       2.394034    1.573774    0.771237
C       1.727922    2.637178   -1.351828
O       1.036978    2.712452   -2.335526
H      -0.341523    0.909774   -1.162113
H       1.980596    3.612750    1.202044
H       0.867231    2.362849    2.009308
H       2.741517    3.089348   -1.288660
