21

C      -0.123806    1.587608    0.085327
C       0.021166    0.074600   -0.005136
C      -1.314116   -0.637945    0.229344
C       0.724681   -0.544903   -1.262184
C       2.066118    0.136707   -1.643885
C       2.732690   -0.532700   -0.421578
O       2.376192    0.123727    0.817468
C       1.118923   -0.587927    0.879687
C       1.526866   -1.507343   -0.302106
H       0.851457    2.078580    0.073046
H      -0.721151    1.976782   -0.747685
H      -0.627697    1.875126    1.015570
H      -2.051277   -0.340285   -0.524642
H      -1.208079   -1.727501    0.176213
H      -1.722634   -0.389783    1.215463
H       0.074135   -0.879578   -2.071756
H       2.460203   -0.299373   -2.568483
H       2.111811    1.226471   -1.714411
H       3.792165   -0.794516   -0.452601
H       0.868551   -0.888969    1.900768
H       1.553798   -2.593099   -0.320315
