18

C      -0.110332    1.498846   -0.090167
N      -0.016588    0.061421    0.066034
C      -1.246314   -0.696820    0.370025
C      -0.409968   -1.569622    1.306243
O      -0.540298   -2.618983    1.852058
C       0.757417   -0.530626    1.207186
C       2.127506   -1.087201    0.823022
C       0.807588    0.293622    2.411000
C       0.826707    0.987326    3.393973
H       0.888007    1.921165   -0.238212
H      -0.703049    1.721214   -0.983139
H      -0.573524    2.005980    0.772698
H      -2.009586   -0.133558    0.934422
H      -1.724976   -1.184967   -0.485425
H       2.037945   -1.700935   -0.076323
H       2.829890   -0.272244    0.625216
H       2.526177   -1.696610    1.638597
H       0.852331    1.590360    4.268133
