15

O       0.804686    1.183477    0.154985
C       0.334347   -0.086635    0.059866
C       0.020732   -0.744848   -1.111844
N      -0.431860   -1.970894   -0.732323
N      -0.422977   -2.157641    0.594405
C       0.034715   -1.009213    1.094018
C       0.152017   -0.812838    2.582881
C       1.300003    0.012216    2.959915
C       2.235556    0.715987    3.239117
H       1.199768    1.291615    1.031488
H       0.087932   -0.439100   -2.142380
H      -0.744001   -2.718615   -1.326683
H      -0.760507   -0.347357    2.981570
H       0.225364   -1.796862    3.058449
H       3.071330    1.311505    3.513749
