22

C       0.022943    1.594072    0.040995
C       0.036052    0.059393    0.016125
C      -1.346949   -0.543595    0.006360
C      -2.321028   -0.395491    1.213555
C      -2.958961   -1.688898    0.720524
N      -2.972068   -1.705086   -0.792561
C      -2.320990   -0.413653   -1.181069
C      -1.747311   -2.088968   -0.032601
C      -0.992330   -3.363222   -0.200222
H       1.040476    1.995929    0.039797
H      -0.496866    2.000927   -0.832852
H      -0.484427    1.972131    0.934617
H       0.586739   -0.286547   -0.868869
H       0.590884   -0.315738    0.886369
H      -1.810734   -0.553834    2.168377
H      -2.931172    0.513340    1.267160
H      -3.702889   -2.310141    1.203012
H      -2.988190    0.456476   -1.218606
H      -1.839525   -0.549268   -2.154415
H      -0.390763   -3.357022   -1.116390
H      -0.317381   -3.542353    0.644125
H      -1.690889   -4.203515   -0.263971
