16

O       0.069178   -0.030821    0.093891
C       0.054653    1.180869    0.013575
N      -1.117751    1.907016   -0.071127
C      -1.149443    3.305624   -0.085235
N      -0.160006    4.070679   -0.280627
C       1.121230    3.428404   -0.568247
C       1.282671    2.041706    0.033196
C       2.210247    1.757442    1.175291
N       2.558965    1.359306   -0.186535
H      -1.976809    1.381284    0.008276
H      -2.141350    3.722885    0.083960
H       1.227123    3.363014   -1.661329
H       1.929898    4.079007   -0.224008
H       2.789122    2.582187    1.582853
H       1.920275    0.987771    1.884664
H       2.358577    0.365102   -0.301342
