19

C      -0.034070   -1.174094   -0.256916
C      -0.040075    0.028073   -0.273238
C      -0.013217    1.485759   -0.283911
C       1.352686    2.042759    0.146313
C       2.481278    1.848228   -0.904747
C       2.283587    3.314190   -1.371246
C       1.506613    3.598590   -0.044828
C       0.327115    4.437362   -0.083795
C      -0.661675    5.121656   -0.132578
H      -0.044558   -2.235616   -0.245606
H      -0.267328    1.850317   -1.287489
H      -0.791292    1.880384    0.380604
H       1.577728    1.688018    1.154760
H       3.455879    1.689471   -0.436252
H       2.320734    1.059810   -1.643025
H       3.174616    3.918908   -1.550377
H       1.627998    3.393530   -2.241041
H       2.200278    3.978791    0.712688
H      -1.528978    5.732977   -0.171939
