19

O      -0.134811    1.471267   -0.064979
C       0.036395    0.063926    0.065346
C      -1.356674   -0.538947    0.143988
C      -1.488897   -2.074001    0.253453
C      -0.751183   -2.414522    1.576343
C      -1.893259   -1.629161    2.239768
C      -2.853161   -2.070721    1.118217
O      -3.478894   -0.791594    1.026681
C      -2.167525   -0.289374    1.436601
H       0.735562    1.879997   -0.072571
H       0.572999   -0.354140   -0.801881
H       0.629732   -0.170023    0.960221
H      -1.937395   -0.145819   -0.695208
H      -1.362881   -2.673565   -0.646745
H      -0.836527   -3.477270    1.823620
H       0.286995   -2.103053    1.704834
H      -2.142709   -1.654315    3.298917
H      -3.515761   -2.935052    1.110353
H      -2.188317    0.702538    1.882688
