23

C       0.029958    1.494669   -0.033691
C       0.034672   -0.001330   -0.048293
C      -0.345957   -0.805576   -1.043373
C      -0.168960   -2.282289   -0.735218
C      -1.401677   -3.117057   -1.111338
C       1.070921   -2.834918   -1.477900
O       0.982319   -2.722587   -2.890180
C       0.102641   -2.254645    0.798267
C       0.528933   -0.805842    1.137635
H       1.039823    1.892282    0.131610
H      -0.348768    1.909249   -0.971930
H      -0.590564    1.880175    0.785464
H      -0.737301   -0.457577   -1.995543
H      -1.521862   -3.154617   -2.197811
H      -1.298380   -4.147553   -0.751559
H      -2.311895   -2.695459   -0.673353
H       1.976401   -2.335411   -1.099143
H       1.174449   -3.906871   -1.272495
H       1.003172   -1.784083   -3.103813
H      -0.822726   -2.499870    1.328975
H       0.847983   -2.997945    1.100230
H       1.618512   -0.704063    1.243311
H       0.103143   -0.453906    2.085343
