13

N      -0.178844    1.295626    0.010145
C      -0.034550    0.046318    0.003543
O      -1.165524   -0.727491    0.008241
C      -1.005873   -2.071052    0.001072
N       0.098692   -2.763816   -0.009882
C      -0.323820   -4.083961   -0.012788
C      -1.685522   -4.159283   -0.003452
N      -2.121597   -2.841081    0.005544
H       0.734506    1.745950    0.005352
H       0.880599   -0.547141   -0.005942
H       0.389079   -4.893340   -0.021475
H      -2.375253   -4.985551   -0.002236
H      -3.069145   -2.503438    0.013818
