19

C      -0.023677    1.537726    0.023174
O       1.251111    2.152672   -0.117085
C       2.248843    1.448144   -0.799010
C       1.988680    0.095613   -1.436343
C       0.582219   -0.454286   -1.343305
C       0.016001    0.004097    0.007365
C       0.882134   -0.591090    1.125118
O       2.241430   -0.174198    1.089525
C       2.783932    0.190794   -0.147162
H      -0.431882    1.910321    0.969221
H      -0.691140    1.876918   -0.785651
H       2.935546    2.136242   -1.281859
H       2.545996   -0.135664   -2.339795
H      -0.035558   -0.079955   -2.168245
H       0.588954   -1.548851   -1.407872
H      -1.008536   -0.362273    0.141584
H       0.506350   -0.297994    2.111683
H       0.828109   -1.689987    1.059617
H       3.849954   -0.012559   -0.168071
