18

C      -0.043603    1.572247    0.058463
C      -0.016111    0.039132    0.016442
C      -1.433222   -0.552589   -0.013742
N       0.775796   -0.445890   -1.120029
C       1.805819   -1.305097   -0.839992
O       2.516957   -1.875503   -1.636481
C       1.857891   -1.390175    0.674752
O       2.119232   -0.100373    1.266111
C       0.772487   -0.551383    1.193030
H       0.972941    1.962670    0.136621
H      -0.509391    1.975612   -0.847002
H      -0.624153    1.925039    0.916453
H      -1.969097   -0.220925   -0.908573
H      -1.398887   -1.645915   -0.024701
H      -2.007943   -0.229749    0.860777
H       0.619975   -0.128032   -2.064182
H       2.294379   -2.250536    1.168883
H       0.269783   -0.729188    2.139734
