19

O       0.009112    1.534553    0.054503
C       0.071076    0.118623    0.193790
C      -1.294774   -0.528598    0.012812
C      -1.922819   -0.585188   -1.423982
C      -2.177447   -2.112500   -1.250137
C      -1.070400   -3.063653   -1.768350
O       0.183983   -2.384059   -1.650237
C      -0.359005   -3.002754   -0.476388
C      -1.445433   -2.078199    0.131450
H      -0.193446    1.723927   -0.867054
H       0.796683   -0.319180   -0.502658
H       0.433784   -0.062235    1.212552
H      -1.988919   -0.042181    0.705528
H      -2.830758    0.009393   -1.543905
H      -1.228531   -0.345404   -2.233459
H      -3.197259   -2.485426   -1.337014
H      -1.131226   -3.844140   -2.519110
H       0.276871   -3.723355    0.026363
H      -1.912269   -2.484699    1.029374
