20

C      -0.370025    1.584836   -0.240459
C       0.077402    0.127054   -0.028009
C       0.902342   -0.414366   -1.142259
C       2.186703   -0.841864   -1.269776
C       3.243303   -0.900705   -0.210543
C       2.351457   -1.247263   -2.646680
C       1.152144   -1.025645   -3.248635
N       0.696454   -1.130780   -4.557614
O       0.258080   -0.523170   -2.366930
H       0.494975    2.250638   -0.317710
H      -0.948287    1.679388   -1.163773
H      -0.994901    1.926966    0.590714
H       0.659067    0.047777    0.896009
H      -0.812277   -0.502159    0.114694
H       3.619883   -1.921927   -0.077181
H       4.105691   -0.275055   -0.470104
H       2.867023   -0.558171    0.757046
H       3.241833   -1.647280   -3.106048
H       1.244570   -1.779363   -5.105823
H      -0.286425   -1.369850   -4.605407
