17

O      -0.097475    1.105738    1.247480
C       0.077028    1.291174    0.073005
C       1.431528    1.628946   -0.535962
C       1.306957    2.744042   -1.574655
O       0.470675    2.683898   -2.444979
C       2.252603    3.927274   -1.418078
C       2.220784    4.878456   -2.587783
C       3.338867    5.787403   -2.863246
O       3.145429    4.606323   -3.642399
H      -0.746474    1.232936   -0.667401
H       2.149095    1.846985    0.257529
H       1.771069    0.735838   -1.079082
H       1.967308    4.442048   -0.487665
H       3.273027    3.559176   -1.258775
H       1.225332    5.155660   -2.929582
H       3.155338    6.727877   -3.380457
H       4.212924    5.780793   -2.212468
