15

C      -0.235120    1.417205    0.005503
C       0.017197   -0.065415    0.122022
N       1.292168   -0.589959   -0.299171
C       0.983377   -0.671357    1.143928
C       1.769622    0.210344    2.054384
O       1.756738    0.100901    3.256020
C       0.564978   -2.005260    1.672502
O       0.202817   -2.900339    0.943474
H       0.685775    1.992698    0.116748
H      -0.650504    1.637496   -0.983592
H      -0.957653    1.751765    0.755971
H      -0.851624   -0.701664   -0.044338
H       1.171204   -1.532461   -0.673942
H       2.380982    0.977405    1.535533
H       0.621037   -2.117992    2.769798
