20

C       0.930432    1.569674   -0.001839
C       0.082048    0.306171    0.023511
C       0.229391   -0.530419   -1.250430
C      -0.606155   -1.824938   -1.262167
C      -0.052658   -2.932779   -0.398648
N       0.313616   -4.029843   -0.915716
O       0.060922   -2.728233    0.949880
C      -0.331456   -1.493368    1.539333
O       0.474496   -0.419753    1.194404
H       1.990298    1.314842   -0.097129
H       0.648599    2.205209   -0.846118
H       0.796366    2.136460    0.922903
H      -0.980555    0.582627    0.135941
H      -0.083138    0.090852   -2.097514
H       1.287227   -0.773608   -1.404585
H      -1.639897   -1.599919   -0.965996
H      -0.645122   -2.234251   -2.272061
H       0.666216   -4.655230   -0.187313
H      -1.388694   -1.285962    1.314156
H      -0.206673   -1.665453    2.610105
