20

C       0.035740    1.520988    0.009941
C       0.010299    0.002827    0.002079
C       1.114361   -0.691295   -0.765193
C       1.126287   -0.699083    0.744601
C      -1.366505   -0.650066    0.009379
C      -2.538316   -0.034278    0.769655
C      -2.549035   -0.028193   -0.729022
C      -1.353669   -2.094360    0.003235
N      -1.342567   -3.251667   -0.001079
H       1.071826    1.869796    0.002767
H      -0.453992    1.949227   -0.870778
H      -0.438516    1.939653    0.903637
H       0.885939   -1.625115   -1.266235
H       1.831011   -0.066798   -1.287542
H       1.851110   -0.079870    1.261941
H       0.905819   -1.638036    1.239564
H      -3.205139   -0.712426    1.288231
H      -2.351066    0.897865    1.287702
H      -2.369112    0.908106   -1.242157
H      -3.223223   -0.702165   -1.243502
