19

C       0.192674    1.566917   -0.685689
O      -0.229283    0.226271   -0.840256
C       0.804840   -0.666861   -1.220276
C       1.840550   -0.801204   -0.185545
C       2.683256   -0.905624    0.665221
C       0.133475   -2.006474   -1.530034
C      -0.574682   -2.681515   -0.381758
C      -0.265897   -2.252490   -2.920876
O       0.920044   -2.845403   -2.378827
H       0.941920    1.669027    0.110093
H       0.617166    1.964156   -1.620538
H      -0.693772    2.148031   -0.422738
H       1.288379   -0.315858   -2.146443
H       3.433368   -1.003559    1.411054
H      -1.347956   -2.021500    0.020225
H      -1.034905   -3.614535   -0.714723
H       0.132701   -2.908271    0.421346
H      -1.081475   -2.943851   -3.126617
H      -0.103267   -1.488243   -3.679825
