22

C       0.948851    1.380787    0.353326
N       0.717157   -0.054303    0.274866
C      -0.677324   -0.635025    0.364325
C      -0.331410   -2.063914   -0.079164
C       0.770286   -2.320294    0.632893
C       0.952844   -1.018209    1.423925
C      -0.527107   -0.768373    1.947819
C      -0.705494    0.504768    2.790662
C      -1.299298   -1.882595    2.665238
H       1.856349    1.574154    0.936606
H       1.131835    1.764101   -0.659355
H       0.138616    1.986268    0.781979
H      -1.498006   -0.100251   -0.117020
H      -0.866685   -2.670823   -0.794565
H       1.397957   -3.198465    0.671233
H       1.836657   -0.879695    2.049525
H      -1.703910    0.933431    2.642872
H      -0.625169    0.249195    3.853075
H       0.027909    1.282722    2.596690
H      -0.861567   -2.071853    3.652582
H      -2.336837   -1.568132    2.831723
H      -1.311660   -2.821542    2.113857
