19

C       0.221646    1.570004   -0.163986
C      -0.048444    0.086534    0.088510
O       0.464673   -0.691867   -0.999838
C       1.297016   -1.739861   -0.520102
C       1.397125   -1.518638    0.970493
C       0.632942   -0.480542    1.304154
C       2.223486   -2.344377    1.865785
C       2.440143   -3.789005    1.650470
O       3.459617   -2.850326    1.328624
H       1.297681    1.762208   -0.203325
H      -0.222195    1.873103   -1.116337
H      -0.217699    2.182402    0.630581
H      -1.140932   -0.063869    0.149255
H       0.852131   -2.719033   -0.763968
H       2.278417   -1.698097   -1.011326
H       0.496544   -0.076004    2.299864
H       2.304441   -1.978625    2.889240
H       2.639159   -4.426557    2.511178
H       1.973781   -4.286894    0.802260
