13

C      -0.322026    1.430720   -0.103891
N      -0.056587    0.007915   -0.034323
C       0.807489   -0.527233   -0.767026
O       1.017612   -1.895394   -0.570218
C       1.735187   -2.623994   -1.452830
O       1.889256   -3.803023   -1.350070
N       2.279407   -1.860168   -2.479042
N       2.298720   -0.500319   -2.540557
N       1.599786    0.144545   -1.726717
H       0.324572    1.979593   -0.794421
H      -1.368241    1.571026   -0.397301
H      -0.221371    1.846502    0.904206
H       2.899971   -2.318791   -3.129087
