19

C      -0.816382    0.840947    0.315681
C      -0.157925   -0.511816    0.435505
N       1.190011   -0.685548   -0.144720
C       1.009077   -0.800782    1.311073
C       1.699002    0.256467    2.128747
C       3.193611    0.371669    2.034117
N       2.346309    1.402233    1.453190
C       1.075560    0.599087    3.438335
O       0.162517   -0.012976    3.935355
H      -0.107443    1.654641    0.481083
H      -1.255404    0.968142   -0.679384
H      -1.618408    0.932802    1.055283
H      -0.840701   -1.350105    0.303823
H       1.292989   -1.599143   -0.575400
H       1.040636   -1.793329    1.754691
H       3.774521    0.674607    2.901361
H       3.681094   -0.341688    1.374288
H       2.257334    1.219909    0.451918
H       1.536765    1.482075    3.933372
