18

C       0.168919   -1.225932   -0.026291
C       0.103414   -0.026636   -0.018380
C       0.019725    1.438079   -0.015732
C       1.419685    2.113647   -0.025781
N       2.120522    1.861020    1.221056
C       3.052867    0.736135    1.241125
C       3.555482    2.135460    1.212951
C      -0.785473    1.923206   -1.140684
C      -1.421613    2.348356   -2.066275
H       0.220006   -2.286626   -0.031155
H      -0.460257    1.750471    0.922047
H       1.975171    1.775146   -0.916408
H       1.262419    3.192694   -0.120145
H       3.071697    0.160112    2.161173
H       3.156088    0.147313    0.332704
H       4.001631    2.485241    0.283156
H       3.948628    2.604048    2.110436
H      -1.996036    2.713718   -2.881283
