20

O      -0.043371    1.407790   -0.109109
C      -0.000397   -0.010299   -0.170589
C      -1.404638   -0.535667    0.096399
C      -1.486371   -2.063623    0.061883
C      -2.902273   -2.595001    0.323543
C      -2.968916   -4.101390    0.271544
C      -4.120104   -4.825659   -0.279604
O      -2.910705   -4.697690   -1.029398
H       0.839451    1.743238   -0.289389
H       0.343509   -0.356659   -1.159072
H       0.698487   -0.420366    0.577494
H      -1.735670   -0.159143    1.072433
H      -2.083340   -0.104109   -0.649639
H      -1.149746   -2.435358   -0.913986
H      -0.798046   -2.486951    0.806727
H      -3.251264   -2.257373    1.308931
H      -3.596178   -2.184058   -0.419534
H      -2.358223   -4.620705    1.013962
H      -4.350872   -5.831140    0.070334
H      -4.970392   -4.263851   -0.665045
