17

O      -0.072827    1.430496    0.005322
C       0.000698    0.053973    0.011772
C      -1.066619   -0.985729    0.006125
O      -0.463399   -1.753178   -1.020576
C       0.655925   -0.807549   -1.088833
C       1.965976   -1.500009   -0.749042
C       1.920152   -2.101208    0.635886
C       0.966372   -1.805063    1.522270
C      -0.115296   -0.838766    1.222321
H       0.592562    1.773662    0.612137
H      -2.146878   -0.958105    0.079719
H       0.669144   -0.309413   -2.063285
H       2.154641   -2.284483   -1.493413
H       2.800594   -0.788132   -0.848479
H       2.702378   -2.808988    0.895058
H       0.959000   -2.281033    2.498586
H      -0.622559   -0.369659    2.061448
