20

C       0.508221    1.375931    0.546361
C       0.037931    0.036959   -0.032466
C       0.908265   -0.533657   -1.178197
C       0.777029   -2.071572   -1.252848
C       1.712384   -2.797324   -2.226869
C       0.549990    0.123589   -2.507694
F       0.547578    1.467657   -2.434212
F       1.416382   -0.197413   -3.485320
F      -0.674428   -0.244206   -2.927663
H       1.530807    1.297237    0.932503
H       0.492294    2.170876   -0.200463
H      -0.135379    1.678799    1.378054
H       0.025952   -0.707376    0.771044
H      -0.998308    0.117558   -0.381297
H       1.959560   -0.276515   -0.995402
H       0.966703   -2.446572   -0.241018
H      -0.265663   -2.322966   -1.479445
H       1.483501   -2.569484   -3.269024
H       2.758511   -2.524760   -2.049442
H       1.623960   -3.879621   -2.091405
