23

C      -0.475027    1.520880   -0.039947
C      -0.033119    0.055308   -0.073920
C       0.551897   -0.423728    1.260217
C       0.990292   -1.889253    1.250532
C       2.151409   -2.238078    0.279850
C       2.907285   -3.317776    1.015178
C       2.499763   -3.455569    2.277184
C       1.449081   -2.433371    2.640821
O       1.974340   -1.444757    3.532049
H       0.367555    2.182650    0.189953
H      -0.893096    1.836345   -1.001175
H      -1.240238    1.685955    0.726782
H      -0.888327   -0.579529   -0.342779
H       0.707172   -0.082166   -0.872702
H       1.404504    0.209852    1.536230
H      -0.190820   -0.276994    2.054964
H       0.131166   -2.505827    0.955426
H       1.789521   -2.573897   -0.698314
H       2.800678   -1.372777    0.078943
H       3.698947   -3.894868    0.547962
H       2.910638   -4.143614    3.007626
H       0.601712   -2.856003    3.190617
H       2.846233   -1.198533    3.203800
