19

C       0.143814    1.483845   -0.032133
N       1.289049    0.559572    0.007184
C      -0.080311    0.014828    0.026821
C      -0.481442   -0.664183    1.317565
C       0.198143   -2.027828    1.495968
N      -0.106056   -3.088580    0.549277
C      -0.140479   -2.979663   -0.703407
O      -0.010832   -1.908367   -1.545408
C      -0.607730   -0.647329   -1.221832
H       0.006579    2.081311    0.864925
H      -0.077906    2.007410   -0.959115
H       1.695621    0.458795   -0.920139
H      -0.197206   -0.032960    2.165929
H      -1.572302   -0.781818    1.347431
H       1.284868   -1.866781    1.478360
H      -0.043911   -2.410098    2.493001
H      -0.242530   -3.882080   -1.308603
H      -1.694453   -0.786258   -1.135187
H      -0.411014   -0.025927   -2.100190
