16

O      -0.037470    1.417231    0.160905
C       0.057563    0.017328    0.084817
C       0.122123   -0.695809    1.493410
C      -1.380169   -0.803547    1.353591
C      -2.424726   -0.131781    1.859008
N      -3.247133    0.324628    0.818076
C      -2.646992    0.195170   -0.436745
O      -3.134123    0.536538   -1.486634
C      -1.369883   -0.602335   -0.145327
H       0.802956    1.759906    0.481689
H       0.815555   -0.303656   -0.641738
H       0.655980   -1.649965    1.438507
H       0.519888   -0.098879    2.318567
H      -2.613093    0.197242    2.872393
H      -4.153141    0.749974    0.927877
H      -1.322785   -1.480868   -0.792603
