16

C       0.062524    1.483639   -0.174268
O       1.520939    1.445583    0.085586
C       1.345636    0.216609    0.828443
C       1.149870    0.233642    2.332610
O       0.181172   -0.836547    2.461220
C      -0.036543   -1.244545    1.144283
C       1.333893   -1.274140    0.328452
N       0.589353   -0.920450   -0.912821
C      -0.005786   -0.022139    0.147694
H      -0.441506    2.148849    0.533644
H      -0.158591    1.778437   -1.203625
H       2.042173   -0.011218    2.917816
H       0.722233    1.171729    2.703266
H      -0.756588   -2.057737    1.079635
H       2.094189   -2.060000    0.364277
H       1.208353   -0.350291   -1.495792
