16

O      -0.267563    1.302082    0.002619
C       0.030685   -0.080468   -0.062734
C       0.812265   -0.405049   -1.274495
N       1.463232   -0.641181   -2.199871
C       0.751564   -0.594799    1.186887
C      -0.017844   -0.455127    2.550314
C       0.036211   -1.982877    2.676067
O      -0.616020   -2.523415    1.520084
C       0.752222   -2.122691    1.397129
H       0.562689    1.792195    0.018047
H      -0.935788   -0.588908   -0.131076
H       1.760045   -0.173969    1.245365
H       0.571123    0.069678    3.305049
H      -1.019709   -0.023830    2.501776
H       0.057329   -2.600877    3.565382
H       1.461533   -2.860521    1.042724
