19

C       0.193214    1.457435   -0.429132
C       0.096832    0.036766   -0.126059
C       0.015890   -1.136580    0.129900
C      -0.095962   -2.560529    0.429973
C      -1.476941   -3.150975    0.113653
C      -1.770777   -3.528112   -1.328104
C      -1.534607   -4.610539   -0.313998
C      -2.560891   -2.648074    0.914111
C      -3.458380   -2.231657    1.598252
H       0.880848    1.643999   -1.261637
H      -0.782955    1.869517   -0.708032
H       0.556828    2.025874    0.434140
H       0.655370   -3.118787   -0.143276
H       0.130985   -2.738601    1.488703
H      -2.780204   -3.373322   -1.688866
H      -0.992632   -3.319143   -2.054261
H      -0.595765   -5.153410   -0.344589
H      -2.383326   -5.193152    0.023135
H      -4.251548   -1.857105    2.196079
