19

C      -0.168387    1.409263    0.053437
N       0.052115   -0.028919   -0.007684
C       0.852425   -0.489695   -1.195252
C       2.164846   -0.328196   -0.387583
C       1.216313   -0.509947    0.824281
C       0.987183   -2.004330    1.054395
O       1.066143   -2.556625    2.132236
N       0.713878   -2.656840   -0.119444
C       0.512722   -1.967062   -1.390031
H       0.732824    2.029580   -0.097549
H      -0.901384    1.689151   -0.710443
H      -0.591740    1.663233    1.030208
H       0.710516    0.077415   -2.118658
H       2.969533   -1.052617   -0.535668
H       2.567001    0.683911   -0.450374
H       1.396963    0.002722    1.768618
H       0.493479   -3.638054   -0.040844
H      -0.531769   -2.052947   -1.716862
H       1.153408   -2.406277   -2.166546
