19

C      -0.364330    1.427824   -0.060832
C       0.387382    0.112896    0.015330
O       1.003939   -0.219312    1.002704
C       0.317933   -0.772627   -1.218474
C       1.266415   -1.982445   -1.270809
O       0.165797   -2.914296   -1.399058
C      -0.811836   -1.857684   -1.260233
C      -1.660372   -2.110668   -0.021896
O      -2.277971   -3.377596   -0.132076
H       0.120613    2.085987   -0.791898
H      -1.391059    1.272832   -0.410592
H      -0.369995    1.913591    0.915336
H       0.317280   -0.157192   -2.120753
H       1.936621   -2.028742   -2.135148
H       1.831021   -2.133023   -0.345789
H      -1.455200   -1.806202   -2.146846
H      -1.035519   -2.040895    0.880393
H      -2.462151   -1.367470    0.058383
H      -1.562171   -4.002648   -0.304028
