21

C      -0.169249    1.616244   -0.008956
C      -0.033765    0.090891    0.010031
C       0.762677   -0.475777   -1.177242
C       2.298817   -0.185333   -1.121512
C       2.907399   -1.545012   -0.803686
O       2.362779   -1.984684    0.490486
C       1.429755   -2.807006   -0.212891
C       2.061390   -2.601227   -1.551505
C       0.695645   -2.005143   -1.272684
H       0.807108    2.111261    0.029156
H      -0.675439    1.958243   -0.919253
H      -0.750677    1.971998    0.847479
H       0.446994   -0.236210    0.938113
H      -1.036453   -0.356236    0.003420
H       0.345595   -0.053923   -2.100317
H       2.675445    0.180602   -2.083660
H       2.560783    0.551155   -0.356213
H       3.996172   -1.619055   -0.820501
H       1.041598   -3.683299    0.293249
H       2.350573   -3.273160   -2.347078
H      -0.177601   -2.478108   -1.710455
