19

C      -0.164915    1.598953   -0.107747
C      -0.206410    0.070976   -0.165222
C       0.986165   -0.514545   -0.949918
C       0.971054   -1.970618   -1.017843
C       0.931746   -3.172408   -1.059594
C       0.905679   -4.634177   -1.115823
N       0.854276   -5.110339   -2.504741
C       2.049416   -5.195074   -0.347333
N       2.939288   -5.679815    0.208895
H       0.750659    1.953609    0.378490
H      -0.197605    2.036028   -1.111916
H      -1.015286    1.994650    0.455153
H      -0.201407   -0.345616    0.848004
H      -1.137630   -0.265366   -0.634083
H       0.988940   -0.105590   -1.969060
H       1.925665   -0.182945   -0.488363
H      -0.006804   -4.992252   -0.619436
H       1.680553   -4.786753   -2.999742
H       0.882274   -6.126541   -2.513599
