21

C      -0.210668    1.559567    0.009702
C      -0.027437    0.035703    0.056407
C       0.631340   -0.488687   -1.237196
C       1.031787   -1.948538   -1.125694
O       0.714399   -2.779593   -1.944884
C       1.898778   -2.308002    0.082470
C       3.389959   -2.295843   -0.327108
C       1.626766   -1.416277    1.267303
C       0.771016   -0.395385    1.262902
H       0.757812    2.067838   -0.055810
H      -0.808487    1.856488   -0.857747
H      -0.719546    1.921413    0.909129
H      -1.030466   -0.412464    0.131502
H      -0.018542   -0.366547   -2.107041
H       1.547710    0.093685   -1.411970
H       1.643482   -3.344364    0.339591
H       3.705628   -1.296739   -0.644232
H       4.018550   -2.590681    0.518965
H       3.564607   -2.995398   -1.148911
H       2.167566   -1.662589    2.179243
H       0.616348    0.176801    2.175460
