21

C      -0.011284    1.487494    0.073192
C       0.039919   -0.018635   -0.027316
C       1.077053   -0.672528   -0.947134
C       0.322400   -1.818185   -1.663248
C      -0.837573   -2.197917   -0.715471
C      -0.358502   -3.023892    0.491443
O       0.255296   -2.085889    1.384192
C      -0.368892   -0.841262    1.181423
C      -1.229751   -0.864138   -0.045762
H       0.938943    1.892062    0.440927
H      -0.212393    1.945519   -0.902613
H      -0.797913    1.816462    0.760625
H       1.475516    0.055950   -1.659736
H       1.920922   -1.057077   -0.365066
H      -0.098038   -1.447095   -2.604549
H       0.965374   -2.670417   -1.907730
H      -1.664333   -2.687289   -1.235397
H      -1.207444   -3.516727    0.989651
H       0.387464   -3.783850    0.238616
H      -0.657119   -0.338638    2.100202
H      -2.232266   -0.456565   -0.094709
