16

C      -0.010922    1.511710    0.114386
C      -0.032425   -0.006068   -0.115013
C      -1.404149   -0.582489    0.016591
C      -2.145633   -1.027325    1.222522
C      -1.953209   -1.991997    0.035941
C      -2.834187   -1.508972   -1.081572
O      -3.610201   -1.957342   -1.860250
O      -2.392931   -0.192508   -0.995356
H       1.001490    1.905685   -0.009819
H      -0.664914    2.018638   -0.600451
H      -0.353201    1.763263    1.122979
H       0.353474   -0.240383   -1.113767
H       0.620675   -0.509518    0.607127
H      -1.545652   -1.283385    2.091157
H      -3.129132   -0.623768    1.440132
H      -1.477170   -2.957372    0.126040
