17

N       0.180811    1.411304    0.026255
C      -0.004937    0.008310    0.008046
C      -1.094867   -0.836079   -0.009887
C      -2.550067   -0.872153   -0.048247
C      -2.961125   -2.155330   -0.051210
C      -1.786335   -3.125912   -0.016741
C      -0.614061   -2.182258    0.011026
C       0.754385   -2.141835    0.034053
N       1.110083   -0.806491    0.035357
H       0.053084    1.824590   -0.893360
H      -0.484256    1.857921    0.647564
H      -3.199843   -0.005463   -0.071274
H      -3.991199   -2.488564   -0.076145
H      -1.836717   -3.785465    0.860596
H      -1.789166   -3.787965   -0.893533
H       1.508106   -2.912880    0.046288
H       2.044953   -0.441643    0.101053
