20

C      -0.114545    1.521528    0.018833
C       0.028929    0.015326    0.033898
C      -0.841179   -0.797426    0.969151
C       0.643051   -0.672280    1.222702
C       1.564850   -1.833260    0.925622
O       1.098599   -2.666555   -0.141695
C       0.570323   -2.103642   -1.269417
N       0.207737   -2.821444   -2.248059
C       0.421189   -0.601087   -1.302065
H       0.810842    2.005511   -0.315909
H      -0.916456    1.835524   -0.659514
H      -0.351025    1.906226    1.015817
H      -1.508183   -0.254973    1.630292
H      -1.230191   -1.751129    0.629667
H       0.965279   -0.060630    2.061130
H       2.572874   -1.464207    0.685143
H       1.654741   -2.506068    1.783852
H       0.407211   -3.804764   -2.050143
H      -0.299304   -0.368231   -2.089931
H       1.381708   -0.166179   -1.616469
