25

C      -1.303600    2.493909   -1.587731
C      -0.905388    1.290470   -0.726722
C      -1.767600    0.061162   -0.986186
C      -1.613792   -0.678307   -2.349949
C      -1.663881   -2.044792   -1.604571
C      -0.692057   -3.136209   -2.027047
C      -1.425487   -1.271938   -0.292507
C      -0.290491   -1.497342    0.668469
C      -1.722560   -1.700559    1.110828
H      -0.661811    3.357524   -1.387294
H      -1.224041    2.260606   -2.654991
H      -2.338936    2.794806   -1.392193
H       0.145942    1.035535   -0.912634
H      -0.970715    1.566453    0.334809
H      -2.821868    0.314098   -0.810357
H      -2.372378   -0.496437   -3.115016
H      -0.625457   -0.499787   -2.788728
H      -2.687220   -2.440710   -1.618092
H       0.338828   -2.766045   -2.034529
H      -0.733596   -3.998925   -1.351770
H      -0.925458   -3.497514   -3.034848
H       0.332361   -2.376333    0.536156
H       0.243147   -0.632566    1.049563
H      -2.156154   -0.972413    1.790290
H      -2.066715   -2.717837    1.274228
