16

C       0.383670    0.877265   -0.825523
C      -0.069086    0.108048    0.391969
O       0.476559    0.181338    1.467971
C      -1.314227   -0.769683    0.270193
C      -2.153713   -0.864397    1.521932
O      -2.021092   -0.695670   -0.974919
C      -1.334562   -1.908764   -0.692753
C      -0.219496   -2.262160   -1.545255
N       0.660310   -2.580163   -2.224103
H       1.224491    1.512692   -0.546779
H       0.686489    0.198545   -1.628701
H      -0.440396    1.480570   -1.219052
H      -2.554822    0.120755    1.777985
H      -2.989080   -1.553049    1.378608
H      -1.533822   -1.199788    2.355308
H      -1.971078   -2.756405   -0.441947
