19

C      -0.031711    1.374396    0.029509
O       0.066704   -0.052759    0.033834
C       0.737420   -0.569194    1.064780
N       1.291865    0.080699    2.022369
C       1.777297   -0.928913    2.937058
C       0.774392   -1.841942    3.622351
C      -0.701407   -1.543911    3.739290
C       1.449263   -2.300672    2.341392
N       0.853475   -1.949327    1.075435
H       0.959123    1.827246   -0.061623
H      -0.647785    1.626225   -0.834294
H      -0.494585    1.730270    0.953751
H       2.715030   -0.708832    3.434097
H       1.198559   -2.332208    4.495844
H      -1.088328   -1.022046    2.861146
H      -1.279247   -2.466767    3.862567
H      -0.899268   -0.906277    4.607331
H       2.121262   -3.151466    2.332716
H       0.116260   -2.503294    0.666113
