11

O      -0.378341    0.116864    0.003388
C      -0.092013    1.279965    0.008418
N       1.208499    1.778954   -0.000504
C       2.358036    1.032759   -0.015737
N       2.495430   -0.246372   -0.026889
O       3.920153   -0.408059   -0.039733
C       4.524391    0.795827   -0.035445
O       5.681823    1.040295   -0.042991
O       3.503283    1.749729   -0.019539
H      -0.821996    2.109492    0.020714
H       1.343957    2.779706    0.005207
