21

C      -1.511609   -0.915713    0.276536
O      -0.366280   -0.231351    0.780280
C       0.860742   -0.806724    0.677255
N       1.930614   -0.166911    0.900271
C       1.840933    1.254117    1.193928
N       0.840980   -2.144674    0.257707
C       2.014478   -2.968637    0.495109
C       0.760289   -3.236402    1.255537
C       0.675512   -2.936783    2.733463
H      -1.761636   -1.790842    0.885458
H      -2.330373   -0.195690    0.332862
H      -1.363636   -1.235341   -0.757885
H       2.816163    1.716311    1.016374
H       1.087722    1.771678    0.586371
H       1.580498    1.426732    2.247138
H       2.299080   -3.610275   -0.333983
H       2.833847   -2.491725    1.024538
H       0.129970   -4.057362    0.917584
H       1.321892   -2.097755    3.002676
H      -0.349385   -2.693759    3.034579
H       0.991718   -3.812635    3.309521
