17

O      -0.026858   -0.013287   -0.321125
C      -0.011753    1.137015    0.025532
O      -1.155630    1.725031    0.453032
C      -1.129123    3.100045    0.864933
C       0.233688    3.745260    0.763862
C       1.084236    3.465708   -0.511409
C       2.343965    3.814179    0.324749
C       1.468695    2.930191    1.252093
C       1.220769    1.999028    0.018418
H      -1.855832    3.634520    0.241090
H      -1.494553    3.131024    1.898593
H       0.190684    4.789208    1.090246
H       0.855755    3.760451   -1.536165
H       3.287522    3.378867   -0.013146
H       2.463153    4.861195    0.616722
H       1.685530    2.604634    2.270032
H       2.071239    1.420322   -0.342767
