22

C       0.170048    1.314002    0.002404
C      -0.100866   -0.161518    0.321210
C      -1.526901   -0.603644    0.030748
C      -2.600520    0.046307    0.883134
C      -1.879257   -0.964701   -1.398389
C      -1.780382   -2.047887   -0.354905
N      -0.708486   -2.996073   -0.447140
C      -0.174182   -3.600530    0.651045
O      -0.451107   -3.327452    1.798424
H       1.219521    1.563023    0.187766
H      -0.047477    1.538413   -1.047674
H      -0.438429    1.984110    0.617538
H       0.589823   -0.784766   -0.256002
H       0.118908   -0.362831    1.376621
H      -2.639941    1.129095    0.724952
H      -3.591965   -0.354126    0.648822
H      -2.409301   -0.135328    1.946549
H      -2.861842   -0.718977   -1.786897
H      -1.082839   -0.913988   -2.135221
H      -2.712325   -2.472594    0.011939
H      -0.479316   -3.378545   -1.351751
H       0.565868   -4.378440    0.371980
