18

C      -0.005260    1.519442    0.021735
C      -0.097070   -0.000829   -0.127581
C       0.864167   -0.540116   -1.185297
N       0.750153   -1.990631   -1.292220
C       1.337902   -2.655730   -2.329277
N       1.576224   -3.969566   -2.328956
N       2.086039   -4.118559   -3.554999
N       2.173035   -3.015140   -4.264231
N       1.701945   -2.058080   -3.500392
H       1.004562    1.831282    0.309644
H      -0.252808    2.025018   -0.917792
H      -0.696800    1.882174    0.787501
H       0.122701   -0.477508    0.838122
H      -1.118300   -0.297038   -0.393376
H       0.628656   -0.116578   -2.165555
H       1.895269   -0.230224   -0.949424
H       0.771101   -2.499085   -0.420472
H       2.387663   -5.012145   -3.911306
