12

C       0.012417   -1.209231   -0.127205
C       0.014046   -0.011934   -0.041129
C       0.013404    1.443660    0.070108
C       1.395342    2.030062    0.030731
N       1.891954    2.689913    1.042725
O       3.164920    3.064829    0.593392
C       3.274526    2.579959   -0.643789
N       2.233437    1.935748   -1.061564
H       0.011382   -2.268148   -0.206403
H      -0.569440    1.876251   -0.752647
H      -0.463140    1.756172    1.004776
H       4.200449    2.769429   -1.166857
