16

C      -0.094578    1.520367   -0.030752
C       0.027665    0.016463    0.003297
C       1.331966   -0.670755   -0.226473
C       0.722183   -0.697063    1.187145
C       1.353277    0.102933    2.205830
C       1.879700    0.771435    3.055456
C       0.141454   -1.936809    1.637369
C      -0.352171   -2.972333    1.997279
H       0.791104    2.001134    0.391660
H      -0.213647    1.867491   -1.062853
H      -0.964032    1.858109    0.542081
H      -0.849014   -0.523388   -0.341446
H       1.349267   -1.614453   -0.758340
H       2.219305   -0.058006   -0.340190
H       2.343749    1.353215    3.812795
H      -0.784117   -3.884704    2.326186
