19

C      -1.021725    1.066308    0.106940
C       0.077500    0.004140    0.032427
N       0.918401    0.238790   -1.134171
C       2.184036   -0.246509   -1.310410
O       2.782795   -0.151810   -2.364701
C       2.795944   -0.915455   -0.077713
N       2.299528   -0.510792    1.237705
C       2.071439    0.919582    1.461882
C       0.926893   -0.017692    1.294045
H      -0.587123    2.064976    0.207803
H      -1.645011    1.046246   -0.793638
H      -1.673141    0.881428    0.965692
H      -0.408841   -0.982246   -0.049388
H       0.492917    0.625242   -1.965542
H       2.636232   -1.996950   -0.177611
H       3.875203   -0.749952   -0.125276
H       2.341365    1.280141    2.450266
H       2.277626    1.612158    0.649323
H       0.371762   -0.335807    2.175087
