14

O       0.026947    0.034005    0.004866
C      -0.008763    1.234793    0.010760
C      -1.280630    2.100216    0.032281
C      -0.750568    3.502876    0.031069
C       0.593502    3.555212    0.012768
C       1.208830    2.171014   -0.001851
C       1.387770    4.726213    0.006875
C       2.105299    5.694278    0.001252
H      -1.909828    1.865443   -0.836541
H      -1.885392    1.857752    0.916217
H      -1.388591    4.377874    0.043694
H       1.849423    1.975592    0.866353
H       1.825317    1.983342   -0.889007
H       2.726029    6.555815   -0.003437
