14

C      -0.141611    1.487117   -0.154561
C      -0.020296    0.001226    0.045414
O       1.267259   -0.583292   -0.126296
C       0.694832   -0.608896    1.194447
C       1.331227    0.177623    2.210757
C       1.854760    0.810088    3.101163
C       2.444394    1.526905    4.094422
C       2.967310    2.163055    4.977797
H       0.669184    2.016871    0.349679
H      -0.105971    1.726653   -1.222132
H      -1.097443    1.846500    0.240682
H      -0.831268   -0.598057   -0.374038
H       0.377789   -1.600702    1.517485
H       3.428290    2.722923    5.753372
