16

C      -0.205277   -1.094574    0.096882
C      -0.055760    0.095708    0.043437
C       0.102088    1.553396   -0.041116
C       1.519753    1.936940   -0.050224
C       2.673444    2.269259   -0.073747
C      -0.636623    2.123669   -1.256392
C      -2.112775    2.396466   -1.167606
C      -1.131528    3.543337   -1.225912
H      -0.329212   -2.147834    0.150358
H      -0.358713    1.993290    0.856339
H       3.695681    2.556310   -0.088372
H      -0.256661    1.750530   -2.201475
H      -2.724198    2.189597   -2.038470
H      -2.609091    2.200199   -0.222709
H      -0.967950    4.118362   -0.320223
H      -1.066488    4.127099   -2.136969
