21

C      -0.063387    1.542504   -0.179119
O       1.220204    2.040352    0.199282
C       2.103672    0.942731    0.427852
C       2.150873    0.525781    1.930412
C       1.293834   -0.755791    1.955875
C      -0.152686   -0.400892    1.542215
C      -0.012328    0.031982    0.043946
C       1.476083   -0.300408   -0.255371
C       1.805052   -1.468399    0.685252
H      -0.835077    2.040066    0.421215
H      -0.253161    1.780566   -1.236549
H       3.085256    1.229703    0.042212
H       3.177125    0.303629    2.242576
H       1.770298    1.332233    2.562507
H       1.360825   -1.322841    2.886248
H      -0.800298   -1.278827    1.630610
H      -0.585834    0.389849    2.162973
H      -0.717545   -0.495890   -0.601611
H       1.719177   -0.414702   -1.312478
H       2.872666   -1.707756    0.723935
H       1.251416   -2.381069    0.442452
