17

C       0.000660    1.523792   -0.016644
C       1.447331    2.056629    0.010825
N       2.215162    1.650701    1.206527
C       1.900031    0.352488    1.593735
C       0.930557   -0.473944    1.072027
C      -0.038097   -0.020272    0.027860
N       1.018551   -1.685166    1.690314
N       1.977854   -1.657072    2.568346
N       2.535038   -0.414823    2.509782
H      -0.544394    1.928752    0.845012
H      -0.500487    1.893671   -0.916794
H       1.986324    1.687863   -0.870848
H       1.461098    3.148403   -0.037656
H       2.139259    2.323886    1.960239
H      -1.049493   -0.373689    0.252236
H       0.222499   -0.431769   -0.956318
H       3.320731   -0.192736    3.098818
