20

N      -0.079652    1.328705   -0.424298
C      -0.013568    0.113944   -0.069862
C      -1.287090   -0.702431    0.037036
C      -1.938400   -0.701101    1.434902
C      -1.160890   -1.425794    2.531796
O       0.085310   -0.788827    2.783818
C       1.238034   -1.483476    2.369764
C       1.320201   -1.697980    0.858238
O       1.204630   -0.474709    0.145404
H       0.856156    1.739974   -0.432274
H      -1.982052   -0.229300   -0.658883
H      -1.133224   -1.729550   -0.311664
H      -2.085066    0.338998    1.745284
H      -2.932711   -1.158385    1.358815
H      -1.736380   -1.394259    3.465459
H      -1.016021   -2.486580    2.279074
H       2.081220   -0.865934    2.694152
H       1.321493   -2.465642    2.866292
H       2.306214   -2.101174    0.606265
H       0.574838   -2.425624    0.520342
