19

O      -0.386095    1.577691    0.183530
C      -0.086388    0.209981    0.370184
C      -1.253170   -0.673089   -0.077013
N      -1.593244   -0.302476   -1.444687
C      -2.097318   -1.157463   -2.222622
N      -2.400009   -0.948568   -3.560778
C      -3.325456   -1.976422   -4.010455
C      -2.909327   -3.115743   -3.069275
O      -2.426476   -2.444957   -1.896327
H      -0.793042    1.615514   -0.693202
H       0.819285   -0.081197   -0.188626
H       0.116873    0.059328    1.436389
H      -0.993053   -1.734906    0.028336
H      -2.113316   -0.475108    0.578270
H      -2.544654    0.013039   -3.825961
H      -4.380046   -1.699967   -3.863787
H      -3.174525   -2.232221   -5.062468
H      -3.731964   -3.771749   -2.779992
H      -2.098438   -3.715137   -3.498712
