17

O      -0.013485   -0.025657   -0.090298
C       0.032770    1.183414   -0.001550
N       1.175053    1.908914   -0.003999
C       2.576244    1.484960   -0.160944
C       2.974980    2.983637   -0.070148
C       1.478968    3.343174    0.030160
C       1.799271    3.969954    1.404775
C       2.439420    3.012088    2.318596
N       3.283440    3.623568    1.273180
H      -0.865095    1.829818    0.087422
H       2.946580    0.817485    0.622792
H       2.775099    1.028681   -1.136453
H       3.634124    3.380071   -0.838415
H       0.945173    3.969098   -0.685759
H       1.479361    4.961469    1.709339
H       2.704072    3.373234    3.307515
H       2.177732    1.959845    2.283097
