13

O       0.080216   -0.121846    0.005497
C       0.026067    1.073086    0.117557
C       1.243341    1.986781    0.003661
C       1.498328    2.832826    1.277575
O       2.515293    2.126073    1.981302
C       3.110887    1.207293    1.154191
O       4.020565    0.509826    1.489795
N       2.489024    1.266779   -0.087536
H      -0.936166    1.606230    0.292170
H       1.068525    2.645622   -0.858351
H       1.859472    3.833841    1.021693
H       0.617244    2.924854    1.918755
H       2.507685    0.405334   -0.614684
