16

O      -0.374214    1.284725    0.110928
C      -0.018129   -0.066716    0.037874
C       0.885541   -0.299318   -1.156483
O       1.201459    0.601881   -1.896822
C       0.668471   -0.552103    1.323081
O       0.830960   -1.947684    1.339689
C       1.681599    0.321154    2.009046
C       0.311805    0.099415    2.622799
H       0.049657    1.707038   -0.653970
H      -0.908412   -0.705677   -0.102087
H       1.244297   -1.335381   -1.311301
H       1.725159   -2.155944    1.051389
H       2.530455   -0.168787    2.474349
H       1.885472    1.293487    1.575468
H      -0.388343    0.924950    2.602188
H       0.248145   -0.561705    3.479054
