19

C       0.015684    1.556058    0.105964
C      -0.026283    0.034668   -0.025412
N      -1.394536   -0.492334   -0.096666
C      -2.110502   -0.100725   -1.309181
C      -1.436194   -1.931291    0.150823
C      -2.797801   -2.424336    0.380146
C      -3.902783   -2.843429    0.587801
C      -0.780906   -2.732374   -0.928275
N      -0.234832   -3.283305   -1.785019
H       1.044487    1.879835    0.289238
H      -0.327250    2.060453   -0.801361
H      -0.607224    1.887939    0.941627
H       0.575606   -0.283536   -0.895541
H       0.444637   -0.407279    0.860619
H      -1.603966   -0.430013   -2.232336
H      -3.114412   -0.530354   -1.290626
H      -2.211457    0.985441   -1.337672
H      -0.852865   -2.116126    1.062773
H      -4.882688   -3.212188    0.768656
