16

C       0.028681   -1.173447   -0.027063
C       0.025685    0.028420    0.012437
C       0.027750    1.466020    0.080329
C      -0.896453    2.173676    1.060762
C      -0.704743    3.463278    0.788503
C       0.314796    3.428494   -0.326877
C       1.354640    2.309067   -0.031320
C       1.343245    2.010434   -1.532294
N      -0.144699    2.274026   -1.274453
H       0.026102   -2.234813   -0.066397
H      -1.553839    1.684250    1.763658
H      -1.168096    4.340334    1.216010
H       0.616027    4.343992   -0.835221
H       2.184992    2.319292    0.685671
H       1.797900    2.745949   -2.200811
H       1.556671    0.991094   -1.859195
