18

O      -0.034426    1.438345   -0.048750
C       0.016460    0.023155   -0.010875
C       0.605962   -0.568911    1.318968
N      -0.501968   -1.310031    1.968934
C      -1.179919   -1.875938    0.770165
C      -1.422839   -0.543103    0.018378
C      -2.155178    0.217833    1.130452
O      -3.061869    0.997718    1.037829
C      -1.504879   -0.318800    2.426340
H       0.865309    1.774524   -0.105245
H       0.553016   -0.366300   -0.888298
H       1.423207   -1.267893    1.115894
H       0.980616    0.223115    1.972314
H      -0.519512   -2.568220    0.240410
H      -2.097305   -2.402134    1.046850
H      -1.942742   -0.545960   -0.937271
H      -2.264010   -0.810997    3.044937
H      -1.054801    0.481399    3.018418
