23

C      -0.022842    1.489269    0.031569
C       0.014260   -0.013252   -0.032114
C       0.230441   -0.768837   -1.342123
C       0.169792   -2.212184   -0.780043
C       0.343015   -3.350760   -1.766703
C       1.202534   -2.118484    0.376201
C       0.631860   -0.879482    1.053564
C      -0.871280   -0.906730    0.821112
C      -1.166441   -2.161557    0.009997
H       0.918514    1.928047   -0.320605
H      -0.829347    1.896290   -0.590192
H      -0.187207    1.839986    1.055921
H      -0.558199   -0.574819   -2.079519
H       1.197492   -0.542971   -1.808108
H       1.314251   -3.296051   -2.271149
H       0.284573   -4.322941   -1.264263
H      -0.433731   -3.329579   -2.539343
H       1.188742   -3.007196    1.017829
H       2.225032   -1.976380    0.007611
H       1.061809   -0.444035    1.947067
H      -1.566115   -0.491662    1.540653
H      -2.034297   -2.053839   -0.650892
H      -1.315498   -3.052691    0.630764
