18

C       0.018125    1.631380    0.249896
C       0.012559    0.118983    0.064560
C       1.054726   -0.484074   -0.960944
C       1.673563   -1.274344    0.195074
O       2.083309   -0.318452    1.188657
C       0.717679   -0.719327    1.161702
N      -1.328479   -0.414492   -0.155236
C      -2.040355   -0.219379   -1.297535
O      -1.622798    0.332884   -2.293794
H       1.028733    1.969926    0.489353
H      -0.315428    2.120498   -0.668537
H      -0.652316    1.925797    1.064730
H       0.568992   -1.100578   -1.715884
H       1.720699    0.234199   -1.442520
H       2.193626   -2.224671    0.186543
H       0.291904   -1.123439    2.075874
H      -1.821351   -0.798500    0.636937
H      -3.061346   -0.646210   -1.224316
