14

C       0.047753    1.540520    0.020413
C      -0.030316    0.056983    0.027342
C      -1.080102   -0.774543   -0.066734
C      -0.597536   -2.205243   -0.005628
O       0.813548   -2.103485    0.130862
C       1.194255   -0.787320    0.154994
O       2.332385   -0.434262    0.262444
C      -2.447578   -0.431458   -0.203343
N      -3.570204   -0.168781   -0.315322
H       0.688460    1.878951   -0.800931
H      -0.937902    1.998223   -0.080318
H       0.518106    1.895946    0.943505
H      -1.009068   -2.748311    0.852815
H      -0.836660   -2.765736   -0.916601
