19

C      -0.097131    1.567087    0.061223
C       0.060063    0.070847   -0.098152
C       0.618563   -0.652705   -1.260934
N       1.314539   -0.685791    0.105812
C       2.429821    0.132900   -0.488942
C       1.816609    0.026113   -1.918024
C       2.592174   -0.915527   -2.833484
O       1.478766    1.224514   -2.599380
H       0.581757    2.137060   -0.571014
H      -1.117268    1.850264   -0.218271
H       0.051220    1.855548    1.108209
H      -0.749791   -0.484476    0.374614
H       0.136812   -1.535330   -1.673830
H       2.523236    1.141869   -0.079015
H       3.380151   -0.392816   -0.370828
H       2.804550   -1.866092   -2.336245
H       2.017259   -1.117877   -3.742912
H       3.551811   -0.468768   -3.123178
H       2.257070    1.524785   -3.081445
