22

C      -0.027751    1.516728    0.094820
C      -0.060364   -0.008724   -0.068466
C       0.708325   -0.508126   -1.273116
C       2.242471   -0.387470   -1.432527
N       2.172557   -1.555353   -2.371662
C       1.054468   -1.223807   -3.394109
C       0.295888   -2.468844   -2.886170
C       0.962679   -2.050114   -1.578041
C       0.288812   -0.076701   -2.698900
H       1.000443    1.883972    0.183030
H      -0.487517    2.020380   -0.761547
H      -0.569060    1.827429    0.993479
H       0.348489   -0.478055    0.836250
H      -1.103005   -0.346832   -0.140536
H       2.665637    0.538410   -1.837688
H       2.807048   -0.693315   -0.545491
H       1.363759   -1.104499   -4.431724
H      -0.793280   -2.483714   -2.969917
H       0.727745   -3.401425   -3.255355
H       1.140719   -2.717413   -0.732352
H      -0.788456   -0.123103   -2.885312
H       0.641846    0.925464   -2.957079
