21

C       0.748808   -0.084995    0.176924
C      -0.422041   -0.825473   -0.469714
N      -1.737380   -0.271624   -0.103584
C      -2.296977    0.643702   -0.972552
O      -3.330411    1.259515   -0.841371
C      -2.310737   -0.685050    1.129170
C      -3.684009   -0.163884    1.472245
N      -1.604115   -1.477667    1.832159
C      -2.092980   -1.983926    3.101309
H       1.695060   -0.530698   -0.146078
H       0.755807    0.971496   -0.110135
H       0.688014   -0.154941    1.264238
H      -0.344441   -0.779049   -1.559785
H      -0.414832   -1.873620   -0.171539
H      -1.656429    0.764455   -1.866740
H      -3.674578    0.922555    1.578610
H      -4.398872   -0.378328    0.675860
H      -4.029108   -0.616052    2.401353
H      -2.273619   -1.184961    3.833238
H      -3.023525   -2.559481    3.001499
H      -1.338162   -2.652062    3.524366
