22

C      -0.124156    1.572502   -0.046923
C      -0.022519    0.043605    0.006937
O       0.414572   -0.546641   -1.220145
C       1.642112   -0.098696   -1.771722
C       2.904892   -0.479836   -0.990342
C       3.008453    0.165933    0.394040
N       2.175350   -0.544788    1.360984
C       1.357789    0.212233    2.296356
C       0.722375   -0.571838    1.194328
H       0.839905    2.085453   -0.053745
H      -0.671120    1.865071   -0.948506
H      -0.682292    1.931479    0.822371
H      -1.051768   -0.325147    0.093114
H       1.680726   -0.559463   -2.764485
H       1.626079    0.991374   -1.926317
H       2.959123   -1.568518   -0.878802
H       3.767016   -0.171679   -1.595801
H       4.040994    0.106001    0.758577
H       2.769483    1.240089    0.320994
H       1.330960   -0.152485    3.320666
H       1.357604    1.297562    2.207564
H       0.313775   -1.547599    1.454168
