19

C      -0.205440    1.535656    0.003043
C      -0.022755    0.026455   -0.035270
C       1.102797   -0.578058   -0.981229
O       1.962211    0.310940   -1.638442
C       1.682299   -1.291980    0.246185
N       2.068670   -0.167643    1.145398
C       0.669245   -0.675799    1.147863
C       0.023424   -1.190020    2.397036
H       0.717063    2.034080    0.310929
H      -0.482861    1.917953   -0.984138
H      -0.994414    1.819696    0.708176
H      -0.973675   -0.472916   -0.252432
H       0.692191   -1.251460   -1.736627
H       2.463056    0.745198   -0.933739
H       2.196074   -2.244824    0.305074
H       2.546157   -0.570882    1.950241
H      -0.273352   -0.368207    3.059143
H      -0.876974   -1.767285    2.160882
H       0.702829   -1.842114    2.957540
