18

C      -0.210745    1.669532   -0.061733
C       0.039855    0.149327   -0.018237
C      -1.229586   -0.579816    0.092037
N      -2.236061   -1.143921    0.161289
C       0.812285   -0.353677   -1.233679
C       2.282497   -0.064781   -1.486955
C       3.079469   -0.194348   -0.193864
O       2.481790   -1.487507    0.094954
C       1.805636   -1.469670   -1.165065
H       0.744831    2.198060   -0.113026
H      -0.802287    1.942007   -0.940259
H      -0.748445    2.004027    0.828886
H       0.622229   -0.099288    0.876112
H       0.238265   -0.354750   -2.157649
H       2.642265    0.366750   -2.410909
H       4.155724   -0.303994   -0.363544
H       2.906766    0.536748    0.604802
H       1.766579   -2.392455   -1.731660
