13

C       0.098362    1.530762    0.049670
C      -0.037396    0.056713   -0.083562
C      -1.097314   -0.801367   -0.042637
C      -2.555861   -0.565464    0.157033
N      -0.576135   -2.065783   -0.233628
N       0.670533   -2.026285   -0.380073
O       1.073930   -0.658106   -0.290120
H       0.749098    1.787691    0.891651
H       0.540072    1.964699   -0.853094
H      -0.877616    1.991436    0.213327
H      -3.134044   -0.920286   -0.702011
H      -2.923947   -1.095926    1.040927
H      -2.765207    0.498768    0.289546
