13

C       0.021045   -1.169373   -0.004641
C       0.021815    0.030542    0.002376
C      -0.020292    1.480345    0.011285
O       1.340144    1.979573   -0.001733
C       1.481134    3.295918    0.003936
C       2.663487    4.007069   -0.005937
N       2.305518    5.318345    0.005524
N       1.088140    5.520561    0.020941
O       0.444776    4.089144    0.020621
H       0.023230   -2.231885   -0.010933
H      -0.551517    1.867518   -0.865024
H      -0.530804    1.857237    0.904233
H       3.682283    3.666515   -0.019785
