15

C       0.012048    1.562374    0.052391
C       0.094829    0.055027    0.068079
C       1.333674   -0.729162   -0.144124
O       2.484246   -0.027989    0.372929
C       1.980121   -0.112991    1.673219
N       2.482823    0.199505    2.770928
C       0.693601   -0.761327    1.248316
C      -0.030332   -1.773142    1.935984
N      -0.634891   -2.596298    2.479454
H       0.945984    2.019300    0.383870
H      -0.194407    1.911400   -0.964368
H      -0.795831    1.909779    0.701987
H      -0.784399   -0.460651   -0.313855
H       1.513840   -1.531451   -0.846634
H       3.418578    0.593579    2.665702
