19

C      -0.149982    1.501355    0.041452
C       1.266794    0.996094    0.033139
C       0.099734    0.011662   -0.006424
O      -0.217669   -0.620092    1.194695
C       0.507895   -1.816151    1.479480
C      -0.062795   -3.036925    0.813859
C      -0.495076   -3.080193   -0.454117
C      -0.457246   -2.008459   -1.440632
C      -0.164847   -0.708036   -1.267017
H      -0.546721    1.875475    0.977432
H      -0.542012    1.980242   -0.848579
H       1.869188    1.126270   -0.858800
H       1.814860    1.031067    0.968482
H       1.567196   -1.683074    1.208252
H       0.464892   -1.931952    2.567203
H      -0.130266   -3.933524    1.424394
H      -0.889571   -4.025176   -0.820570
H      -0.667680   -2.322403   -2.460297
H      -0.130506   -0.075539   -2.151701
