10

O      -0.073584   -0.012044    0.262198
C      -0.019217    1.168641    0.140104
N       1.215660    1.888447    0.001204
N       2.359331    1.195399   -0.305476
N       3.422388    1.863381   -0.359885
C       3.359510    3.232398    0.038413
O       4.272793    3.784950    0.575200
N       2.145706    3.907887   -0.289356
N       1.089088    3.228591   -0.233341
H      -0.857570    1.881670    0.137771
