19

C       0.176667    1.587557    0.163774
O       1.492913    1.489988   -0.421816
C       1.357323    0.063610   -0.598139
C       2.451480   -0.754571    0.035082
O       2.658706   -0.609136    1.443363
C       2.080930   -1.829970    0.972869
C       0.626748   -2.053330    1.344673
C      -0.131939   -0.718745    1.410002
C      -0.031490    0.058089    0.091132
H       0.211998    2.011768    1.174837
H      -0.500788    2.190045   -0.454473
H       1.321481   -0.195145   -1.667242
H       3.375174   -0.843460   -0.537100
H       2.738116   -2.696929    1.045767
H       0.174557   -2.734661    0.611089
H       0.573210   -2.560512    2.314975
H      -1.181275   -0.897400    1.665485
H       0.301665   -0.124690    2.219110
H      -0.830339   -0.244646   -0.590268
