22

C      -0.111102    1.648340   -0.027648
C      -0.105059    0.155970    0.324184
C      -1.417299   -0.529747   -0.036602
C      -1.726162   -0.796742   -1.523875
O      -2.014110   -2.183434   -1.270638
C      -1.592745   -2.075386    0.123231
C      -0.327114   -2.895387    0.352968
C      -2.716231   -2.506957    1.056132
H       0.839863    2.121925    0.234330
H      -0.274063    1.803527   -1.099972
H      -0.907344    2.178050    0.506967
H       0.728328   -0.334056   -0.192983
H       0.086263    0.036291    1.398549
H      -2.242527   -0.003639    0.455579
H      -2.583771   -0.270531   -1.959226
H      -0.862577   -0.672921   -2.194180
H       0.458509   -2.627088   -0.357540
H       0.059945   -2.755277    1.367913
H      -0.550789   -3.958480    0.218070
H      -2.932690   -3.572836    0.928947
H      -2.438332   -2.337742    2.102665
H      -3.630674   -1.945802    0.844311
