17

O      -0.041273   -0.004645    0.054718
C      -0.021775    1.196977    0.021882
N      -1.014401    2.148132   -0.001582
C      -0.119386    3.313927    0.043225
C      -0.039868    4.043455    1.390382
C       0.758086    3.091408    2.304916
C       1.807210    2.459558    1.365847
C       1.074079    2.294971    0.026148
H      -2.015491    2.064324    0.105668
H      -0.232685    3.977905   -0.817574
H       0.513275    4.979606    1.245796
H      -1.024720    4.307258    1.788540
H       1.207754    3.604550    3.158578
H       0.098651    2.314925    2.706862
H       2.656779    3.139843    1.235402
H       2.200385    1.509950    1.738868
H       1.720097    2.285667   -0.852156
