18

O      -0.255422    1.463914    0.009293
C      -0.121179    0.075383    0.080203
C       0.164382   -0.664871    1.401365
C      -0.679116   -1.832687    0.950803
C      -1.185985   -0.955784    2.077213
C      -2.227812   -0.356118    1.173193
C      -3.687864   -0.311614    1.322303
N      -2.897175    0.949803    1.268422
C      -1.389250   -0.817810   -0.029667
H      -1.137501    1.688872    0.337537
H       0.629062   -0.222340   -0.659517
H       1.085675   -0.693185    1.969206
H      -0.486347   -2.892630    0.899453
H      -1.257915   -1.188515    3.132111
H      -4.333090   -0.482319    0.464656
H      -4.122457   -0.594903    2.277576
H      -2.792520    1.320615    2.210706
H      -1.854401   -1.036774   -0.987993
