21

C      -0.029853    1.558847   -0.051678
C      -0.014353    0.037038   -0.083046
C       1.225094   -0.593327   -0.778358
O       1.952127   -0.498364    0.487857
C       0.662425   -0.609006    1.154640
C       0.329703   -2.104718    1.322397
C      -1.070600   -2.338526    1.908158
C       0.522094   -2.778636   -0.025833
C       0.951573   -2.055787   -1.060271
H       0.947440    1.947960    0.248769
H      -0.274969    1.971566   -1.036325
H      -0.777720    1.928610    0.658703
H      -0.982195   -0.368472   -0.388231
H       1.725956   -0.053791   -1.585779
H       0.637814   -0.062996    2.104093
H       1.063850   -2.522972    2.026912
H      -1.850840   -1.931683    1.256865
H      -1.268046   -3.407952    2.033481
H      -1.167998   -1.864774    2.891101
H       0.306508   -3.841035   -0.106517
H       1.098800   -2.466649   -2.053479
