20

C      -0.318849    1.404322   -0.078938
C       0.008005   -0.079554   -0.011996
O       0.876639   -0.417090   -1.104814
C       1.934561   -1.266134   -0.662312
C       1.527009   -1.769571    0.726699
C       0.720534   -0.588149    1.240471
C       1.288035    0.329577    2.295181
C       0.100751   -0.555451    2.604228
H       0.590588    2.006659   -0.003381
H      -0.801507    1.633543   -1.032793
H      -1.005323    1.693563    0.724445
H      -0.927782   -0.651267   -0.133964
H       2.068940   -2.071994   -1.392281
H       2.873197   -0.694052   -0.611680
H       0.891877   -2.659604    0.640463
H       2.381886   -2.022840    1.359058
H       2.247481    0.068149    2.730053
H       1.115586    1.396613    2.214130
H      -0.868199   -0.077757    2.714877
H       0.247800   -1.410419    3.256350
