18

C       0.164296    1.503460    0.100410
C       0.142980    0.009619    0.044476
C      -0.952169   -0.889468    0.679931
C      -0.921782   -2.218409   -0.078145
C       0.615776   -1.988205   -0.179732
C       0.510716   -1.023541    1.067364
N       0.736055   -0.785164   -1.035146
C       0.538800   -0.730636   -2.383676
O       0.641320   -1.678585   -3.134286
H       1.178810    1.886910   -0.048056
H      -0.486747    1.948594   -0.659499
H      -0.189414    1.844079    1.078280
H      -1.759376   -0.461969    1.261756
H      -1.154117   -3.054146    0.586629
H      -1.466041   -2.320657   -1.021669
H       1.324595   -2.792729   -0.350039
H       1.044771   -0.958142    2.004026
H       0.342737    0.303392   -2.734741
