20

O       0.043780    1.398336   -0.191148
C       0.071953   -0.009217   -0.024132
C      -1.370777   -0.503254   -0.037492
C      -1.500088   -2.020824    0.084344
C      -1.021872   -2.607176    1.425059
O      -1.731801   -3.844189    1.586028
C      -2.861085   -3.851208    0.810707
N      -3.690179   -4.801198    0.761965
C      -2.940858   -2.554772    0.036437
H       0.948487    1.723806   -0.176976
H       0.637703   -0.498446   -0.834567
H       0.560430   -0.285995    0.924760
H      -1.918089   -0.015455    0.779082
H      -1.836513   -0.166248   -0.970569
H      -0.925832   -2.500034   -0.719395
H       0.046883   -2.830796    1.461460
H      -1.268463   -1.938330    2.261809
H      -3.408745   -5.552722    1.394433
H      -3.624496   -1.870481    0.555310
H      -3.334564   -2.716292   -0.967249
