15

C      -0.006732    1.550612    0.038131
C      -0.037785    0.057410    0.045034
C       0.118991   -0.996087    1.136456
C      -0.616009   -2.066787    0.272822
N       0.426210   -2.712448   -0.551147
C       1.381011   -1.878408   -0.564288
N       1.249373   -0.696655    0.263539
C      -1.112953   -0.829503   -0.533426
O      -2.119415   -0.582522   -1.132957
H       0.675980    1.925680    0.804085
H       0.334293    1.922129   -0.933303
H      -1.009234    1.949957    0.217497
H       0.169600   -0.862348    2.210359
H      -1.351088   -2.751668    0.685829
H       2.296785   -1.998423   -1.131940
