21

C      -0.266258    1.536333    0.049678
C       0.009165    0.037806    0.060380
C       1.056152   -0.557873   -0.945436
C       1.805247   -1.201332    0.234845
C       2.403036   -2.585722    0.213807
C       3.692736   -2.625499   -0.584045
O       3.911852   -3.369454   -1.504639
C       2.255181   -0.118372    1.179966
C       0.818168   -0.566169    1.220136
H       0.653871    2.119869    0.157736
H      -0.741459    1.839649   -0.889771
H      -0.936968    1.818746    0.868707
H      -0.936344   -0.503063   -0.046534
H       0.616525   -1.287200   -1.630078
H       1.631216    0.166010   -1.533335
H       2.644536   -2.891697    1.242115
H       1.713612   -3.324221   -0.208400
H       4.453106   -1.880434   -0.252710
H       2.857905   -0.451116    2.019918
H       2.529536    0.865295    0.806795
H       0.393180   -0.996708    2.120337
