21

C       0.080153    1.523425    0.111593
C      -0.013497    0.025003    0.025158
C       0.783736   -0.715162   -1.078133
C       0.543480   -2.173816   -0.575561
C      -0.318065   -1.810363    0.648301
O       0.432226   -0.695103    1.227684
C      -1.338378   -0.792141    0.089451
C      -2.366291   -0.312244    1.092317
O      -3.291059   -1.377592    1.288872
H       1.121799    1.826768    0.260150
H      -0.276915    1.982220   -0.816361
H      -0.510772    1.917694    0.942753
H       0.392217   -0.526778   -2.081782
H       1.837344   -0.426705   -1.055197
H       0.016095   -2.805154   -1.295718
H       1.467005   -2.675908   -0.280229
H      -0.593936   -2.582677    1.364870
H      -1.818878   -1.042566   -0.862047
H      -1.862842   -0.039168    2.029450
H      -2.877072    0.585071    0.706256
H      -3.918912   -1.106904    1.964958
