24

C      -0.143426    1.558277   -0.059639
C       0.066031    0.040893   -0.069676
C       0.748135   -0.543613    1.192057
C       0.806483   -2.075863    1.069321
C       2.160373    0.050413    1.371926
C       2.945907   -0.493165    2.569632
O       0.051698   -0.137355    2.383324
C      -1.249658   -0.635351    2.591151
H       0.802654    2.103886   -0.118926
H      -0.752898    1.867507   -0.914406
H      -0.651886    1.874440    0.855358
H      -0.903235   -0.454978   -0.201882
H       0.664166   -0.250764   -0.941731
H       1.510193   -2.363155    0.281782
H       1.135524   -2.534822    2.005067
H      -0.167294   -2.499287    0.806159
H       2.724011   -0.114616    0.445376
H       2.051759    1.133077    1.487476
H       2.359549   -0.393443    3.486352
H       3.209961   -1.548061    2.446657
H       3.879266    0.063691    2.698373
H      -1.947706   -0.357407    1.788537
H      -1.273514   -1.727833    2.705775
H      -1.606260   -0.186484    3.522430
