19

C      -0.016035    1.449449    0.091475
C       0.013983   -0.048771   -0.036325
C       0.656823   -0.691034   -1.290156
C       0.265658   -2.169780   -1.067789
C       1.132621   -2.796254    0.054003
C       0.259079   -2.020457    1.061787
O       0.630513   -0.639774    1.117441
C      -0.888480   -1.965875   -0.009031
O      -1.292589   -0.619402   -0.049839
H       1.002912    1.841521    0.132764
H      -0.530289    1.890534   -0.765682
H      -0.539339    1.731045    1.007844
H       0.198642   -0.278865   -2.193468
H       1.737071   -0.532985   -1.332218
H       0.081359   -2.735285   -1.980692
H       0.978632   -3.876482    0.141322
H       2.202953   -2.576258    0.058532
H       0.107778   -2.391592    2.076246
H      -1.730228   -2.651397    0.039574
