16

C       0.189851    1.385799   -0.140310
N      -0.153117    0.018468    0.264414
C       0.721991   -0.501816    1.290651
C       0.562093   -2.027665    1.555083
O       1.937958   -2.254952    1.128395
C       2.108349   -0.915061    0.815332
N       3.080544   -0.315095    0.310450
C       0.323444   -2.455330    2.927876
N       0.106792   -2.777185    4.015969
H       1.196441    1.391443   -0.563961
H      -0.514131    1.712303   -0.909734
H       0.164870    2.111685    0.689492
H      -1.107270    0.001238    0.612955
H       0.764282    0.090837    2.219128
H      -0.138511   -2.509452    0.868489
H       3.855261   -0.945481    0.097538
