21

C      -0.000132    1.455695   -0.070764
C      -0.007912   -0.054914    0.004327
C      -1.330914   -0.779568   -0.317820
C      -1.547654   -1.863607    0.746250
C      -0.682870   -3.099320    0.755667
C      -0.309284   -1.914143    1.618747
C       0.651142   -0.844925    1.140989
C       1.273683   -0.816256   -0.234745
O       1.351478   -1.962494   -1.035468
H       0.976196    1.862804    0.212246
H      -0.223179    1.810554   -1.084869
H      -0.748371    1.891343    0.602317
H      -2.147772   -0.051792   -0.273940
H      -1.334519   -1.191305   -1.334877
H      -2.538501   -1.939890    1.181763
H      -1.086722   -3.961102    1.278335
H      -0.073861   -3.330764   -0.104587
H      -0.388389   -2.024554    2.694560
H       1.208997   -0.328741    1.916353
H       2.166705   -0.190431   -0.303390
H       1.246640   -1.685111   -1.952107
