17

C      -0.343051    1.341064    0.042219
N       0.129030   -0.036638   -0.026817
C       0.018698   -0.778497    1.231105
C      -1.358780   -0.972461    1.691269
C      -2.490312   -1.095698    2.076472
C       0.050895   -0.773296   -1.193837
N      -0.135286   -2.038153   -1.193440
C       0.373484   -0.044362   -2.488914
O       0.196161   -0.557628   -3.563239
H      -0.258092    1.837683   -0.923827
H      -1.393948    1.386991    0.357582
H       0.258574    1.900601    0.766418
H       0.497186   -1.748920    1.082559
H       0.582122   -0.225997    1.993682
H      -3.489461   -1.230960    2.410170
H      -0.061026   -2.376130   -2.154693
H       0.842666    0.955697   -2.404064
