21

C      -0.164003    1.318385   -0.126789
C       0.000478   -0.187843    0.097119
C       0.869028   -0.551878    1.330657
C       0.183884   -0.245105    2.669626
C       1.118676   -0.355789    3.878638
C       1.236104   -2.031182    1.223264
O       0.716617   -2.903168    1.886406
C       2.251423   -2.355284    0.228601
C       3.103640   -2.612207   -0.582280
H       0.808335    1.804317   -0.263256
H      -0.760403    1.509233   -1.024317
H      -0.667418    1.808105    0.711754
H      -0.982045   -0.662421    0.211837
H       0.454116   -0.629142   -0.797859
H       1.806431    0.017153    1.250613
H      -0.234333    0.765908    2.627682
H      -0.658038   -0.934603    2.791440
H       1.510889   -1.370917    3.983830
H       1.968415    0.330530    3.788222
H       0.589394   -0.106855    4.803378
H       3.854167   -2.856839   -1.294287
