13

O      -0.224895    0.032061    0.172806
C      -0.014648    1.199500   -0.020749
C       1.370487    1.781293   -0.286477
C       1.341284    2.879824   -1.297785
N       1.944743    2.786955   -2.474095
N       1.634833    3.974559   -3.047104
C       0.873335    4.711855   -2.216941
N       0.664482    4.051724   -1.095255
H      -0.829879    1.954640   -0.000666
H       1.722919    2.187535    0.672075
H       2.045943    0.981137   -0.592187
H       1.977001    4.191042   -3.968942
H       0.506843    5.696837   -2.464037
