19

C       0.048324    1.348202   -0.044704
O      -0.145567   -0.038492    0.127818
C       0.619740   -0.599306    1.168377
C       0.114834   -2.026704    1.451658
C       1.293975   -2.685637    2.174173
O       1.283176   -4.083357    2.210809
C       2.495747   -2.131956    1.409557
O       3.513103   -2.758649    1.243173
C       2.126375   -0.771042    0.832541
H       1.077549    1.591517   -0.347745
H      -0.633366    1.672934   -0.834051
H      -0.181569    1.906648    0.876174
H       0.514587    0.018289    2.075727
H      -0.814984   -2.038545    2.022342
H      -0.058601   -2.538063    0.498201
H       1.357569   -2.265351    3.197974
H       2.192260   -4.355748    2.014141
H       2.264223   -0.810709   -0.254208
H       2.779016    0.017303    1.217279
