17

C       0.123448    1.548416   -0.040543
C      -0.027972    0.028236    0.035175
N       0.576565   -0.613166   -1.154708
C       1.662019   -1.215707   -0.823495
N       2.505723   -1.894521   -1.645421
C       1.966408   -1.121948    0.640378
O       3.011833   -1.351275    1.202048
C       0.688136   -0.592707    1.263946
O       0.919492    0.269721    2.346303
H       1.179315    1.835633   -0.021883
H      -0.317780    1.916273   -0.970346
H      -0.371845    2.026006    0.807995
H      -1.095114   -0.217903    0.037072
H       2.433745   -1.726345   -2.636317
H       3.427639   -2.075423   -1.279563
H       0.112782   -1.481640    1.582718
H       1.769195    0.009902    2.728574
