23

C       0.055685    1.602479    0.165504
C      -0.002634    0.086952    0.047269
C       1.000745   -0.661529   -0.917644
C       1.171131   -1.787638    0.169869
C       0.286271   -3.006100   -0.110705
C       2.527051   -2.156452    0.819494
C       2.315685   -1.818134    2.331810
C       1.262889   -0.711182    2.293530
C       0.614393   -0.766181    1.134762
H       1.073010    1.933886    0.398271
H      -0.255096    2.082936   -0.768637
H      -0.605039    1.963556    0.961115
H      -1.025789   -0.231360   -0.187116
H       0.608704   -0.966254   -1.892650
H       1.917099   -0.080638   -1.056930
H       0.698716   -3.600272   -0.934635
H       0.216337   -3.655236    0.768869
H      -0.731870   -2.714458   -0.389608
H       2.823590   -3.197486    0.654637
H       3.323896   -1.519360    0.419890
H       1.979619   -2.696290    2.901455
H       3.242702   -1.482444    2.809500
H       1.162011    0.037185    3.071593
