17

N       0.048701    1.356782    0.077357
C      -0.055818   -0.016217    0.057133
N      -1.191030   -0.594871    0.017172
C      -1.226695   -2.056883    0.044483
C       0.105480   -2.675718   -0.432154
C       1.239494   -1.985618    0.307300
O       1.186097   -0.565623    0.107960
C      -1.586355   -2.550397    1.380702
C      -1.858200   -2.968609    2.474682
H       0.922116    1.726417   -0.264517
H      -0.779108    1.829610   -0.249614
H      -2.021139   -2.369685   -0.645302
H       0.131556   -3.752681   -0.246012
H       0.209879   -2.508889   -1.509591
H       1.176450   -2.192213    1.382555
H       2.223206   -2.294853   -0.052671
H      -2.115639   -3.324496    3.441474
