17

C      -0.396112    1.367056    0.329651
O      -0.429914   -0.031205    0.485721
C      -0.859371   -0.705508   -0.674557
C      -0.845508   -2.194207   -0.379444
C      -1.983658   -2.763535    0.493254
C      -2.344199   -3.578374   -0.765451
O      -1.285797   -2.954562   -1.527050
H      -0.050970    1.794490    1.274276
H       0.294703    1.671325   -0.472509
H      -1.391864    1.776531    0.096408
H      -1.876521   -0.391201   -0.965172
H      -0.194707   -0.495748   -1.529939
H       0.162499   -2.490279   -0.060794
H      -1.670140   -3.343085    1.361937
H      -2.726193   -2.026039    0.803390
H      -2.199234   -4.662638   -0.682474
H      -3.330291   -3.387507   -1.205347
