14

O       0.105135    1.410184   -0.189857
C       0.043806    0.059266   -0.046927
C      -0.238381   -0.833854   -1.227882
C      -1.114534   -0.984606   -0.014628
O      -0.365233   -1.757761    0.980168
C       0.595760   -0.755365    1.078181
N       1.516891   -0.575623    1.906289
C      -2.517047   -0.890130    0.088533
C      -3.713516   -0.792636    0.173941
H       0.065118    1.811492    0.687104
H      -0.700821   -0.297401   -2.051028
H       0.433060   -1.641390   -1.505081
H       1.557963   -1.328091    2.595480
H      -4.770077   -0.713424    0.248479
