23

C      -0.410847    1.531632    0.348475
C      -0.157388    0.028086    0.214763
C      -1.376893   -0.749517    0.715081
C       0.283367   -0.477517   -1.176786
C       1.607021    0.091148   -1.598370
C       1.584051   -1.035837   -0.606305
C       1.220109   -0.555891    0.802578
C       2.174678    0.400561    1.509919
O       1.044127   -1.721900    1.597598
H       0.406460    2.137312   -0.051026
H      -1.320944    1.813095   -0.193611
H      -0.553328    1.817095    1.397444
H      -2.258755   -0.475296    0.124756
H      -1.226194   -1.827154    0.635903
H      -1.601392   -0.514404    1.762354
H      -0.390126   -0.938279   -1.891158
H       1.931413   -0.189185   -2.595771
H       1.913047    1.093107   -1.310916
H       2.062679   -1.989869   -0.790826
H       2.425781    1.270581    0.899323
H       1.732974    0.773341    2.443195
H       3.101219   -0.125684    1.759057
H       0.747566   -1.445644    2.471432
