19

O      -0.062967    1.381309   -0.516531
C      -0.036903    0.027199   -0.181233
C      -1.442464   -0.553495   -0.089785
O      -2.392712    0.186678   -0.235604
C      -1.582119   -2.050594    0.165484
C      -2.999844   -2.462408    0.640451
C      -3.718271   -3.040739   -0.607229
C      -2.587836   -3.311473   -1.567377
C      -1.431865   -2.795672   -1.156088
H      -1.006094    1.610820   -0.546948
H       0.541829   -0.554360   -0.916931
H       0.453367   -0.140610    0.794241
H      -0.797622   -2.342336    0.875793
H      -2.906635   -3.234656    1.408542
H      -3.536142   -1.616807    1.072888
H      -4.295238   -3.942525   -0.373552
H      -4.427099   -2.323019   -1.039596
H      -2.724955   -3.854224   -2.496398
H      -0.489801   -2.844790   -1.689945
