21

C       0.053108    1.292991   -0.295996
O      -0.053257   -0.002653    0.265804
C      -1.320037   -0.561751    0.158077
C      -1.775395   -1.145209   -1.173066
C      -1.471085   -2.045264    0.017886
C      -0.335576   -3.025203    0.000222
O      -2.565482   -2.482844    0.790562
C      -3.348416   -1.344359    1.153577
C      -2.407333   -0.122662    1.130591
H       1.100270    1.592157   -0.210443
H      -0.238326    1.298006   -1.355657
H      -0.568751    2.024101    0.239783
H      -2.798355   -1.006735   -1.507524
H      -1.035125   -1.149354   -1.966331
H       0.539694   -2.574319   -0.472919
H      -0.068693   -3.309759    1.022542
H      -0.606620   -3.932416   -0.548828
H      -4.173699   -1.212103    0.439812
H      -3.784914   -1.536842    2.137230
H      -1.938494    0.044503    2.106231
H      -2.937497    0.789831    0.842043
