17

C      -1.404267    0.999236    0.536926
N      -0.360082    0.116300    0.014669
C       0.532305   -0.561365    0.837112
C       0.618206   -0.124868    2.284679
O       1.218713   -1.469552    0.402209
C      -0.475897   -0.295881   -1.324256
N      -1.564595   -0.116470   -1.955248
C       0.772453   -0.819801   -2.021338
O       0.677594   -1.509146   -3.003976
H      -1.722535    1.665643   -0.263681
H      -2.281527    0.434210    0.869372
H      -1.015817    1.587444    1.367519
H      -0.335397   -0.267681    2.802041
H       1.382058   -0.734247    2.765834
H       0.888002    0.932160    2.371229
H      -1.436769   -0.449864   -2.913852
H       1.738795   -0.444091   -1.649224
