15

O      -0.030476   -0.049445    0.071318
C       0.014488    1.163192    0.062277
C       1.239443    1.940646   -0.043523
C       1.361565    3.287703    0.030976
C       2.772105    3.669672   -0.058863
C       3.774927    2.775431    0.816852
O       3.163206    1.620744    1.306519
C       2.628802    1.360541   -0.065918
C       3.553827    2.489468   -0.614384
H      -0.914408    1.774532    0.115775
H       0.551027    3.984178    0.214308
H       3.099303    4.683245   -0.251597
H       4.563426    3.235848    1.398942
H       2.754847    0.317995   -0.343918
H       4.192370    2.498970   -1.488200
