13

N       0.045666   -1.174253   -0.138808
C       0.011913   -0.022640   -0.052965
C      -0.043137    1.424595    0.068039
C      -0.235393    2.046737    1.507131
C       1.098078    2.777542    1.324432
O       2.100465    1.788995    1.097132
C       1.308899    2.184047   -0.017179
C       1.942443    2.684550   -1.195873
N       2.412117    3.089567   -2.171419
H      -0.770423    1.832878   -0.637097
H      -1.102412    2.706947    1.548363
H      -0.257978    1.337883    2.335062
H       1.419249    3.737736    1.707912
