17

C      -0.153542    1.479144   -0.023568
C       0.097817    0.009123    0.044775
C       0.787098   -0.883631   -0.887784
C       1.662987   -1.854326   -0.108160
O       1.359779   -1.608058    1.272084
C       0.108608   -0.938326    1.273409
C      -0.939433   -1.740036    0.484794
N      -1.816130   -2.619406    0.677529
N      -0.714493   -1.028214   -0.757664
H       0.679801    2.034626    0.420496
H      -0.266393    1.801030   -1.062395
H      -1.067378    1.749793    0.515177
H       1.083447   -0.559768   -1.878800
H       1.447015   -2.898976   -0.368337
H       2.727861   -1.661052   -0.273760
H      -0.114533   -0.578433    2.277325
H      -1.820742   -2.908350    1.657691
