14

O      -0.031123    1.464428    0.078065
C      -0.030177    0.069129    0.015512
C      -1.406968   -0.573635   -0.032271
N      -2.010945   -0.473275   -1.354044
C      -1.374296   -1.765385   -0.944216
C      -0.019624   -1.848275   -1.576848
O       0.491384   -2.760405   -2.165389
C       0.644289   -0.477693   -1.244683
O       1.496999    0.093692   -1.867389
H       0.626159    1.767754   -0.564578
H       0.515073   -0.368309    0.875108
H      -2.033393   -0.580758    0.853134
H      -3.021464   -0.577001   -1.302058
H      -1.976829   -2.651384   -0.788139
