17

C      -0.101800    1.524926    0.118529
C      -0.022663    0.049385   -0.060099
C       0.863581   -0.947488   -0.918918
C       1.184417   -1.604792    0.433043
N      -0.034363   -0.961139    1.026491
C      -1.061956   -1.029140   -0.097200
C      -0.438702   -1.675797   -1.336196
C      -2.438780   -0.976694    0.269022
N      -3.566588   -0.929066    0.523288
H       0.854727    1.929763    0.465931
H      -0.361086    2.022639   -0.821410
H      -0.866488    1.767959    0.861986
H       1.623753   -0.696623   -1.655314
H       1.212967   -2.698293    0.486439
H       2.058958   -1.182409    0.933087
H      -0.877913   -1.256883   -2.243851
H      -0.413802   -2.767934   -1.398441
