20

C      -0.227697    1.596551    0.028896
C       0.016359    0.086112    0.098254
C       0.715058   -0.465008   -1.147851
C       2.172832   -0.043160   -1.229159
O       2.891195   -0.234550   -2.182403
C       0.568678   -2.014130   -1.258188
O      -0.123025   -2.639612   -0.476415
N       1.224240   -2.558190   -2.312178
C       1.220361   -3.984116   -2.577544
H       0.704347    2.163449   -0.079275
H      -0.866942    1.853328   -0.823378
H      -0.723682    1.953271    0.936210
H       0.618151   -0.160331    0.982168
H      -0.925320   -0.451258    0.225836
H       0.239502   -0.066061   -2.055445
H       2.568313    0.460209   -0.320298
H       1.855185   -1.956847   -2.824072
H       2.200589   -4.433994   -2.380968
H       0.483023   -4.443334   -1.918539
H       0.948088   -4.183738   -3.618953
