14

C      -0.020441    1.392956    0.019794
O       0.021621   -0.032596   -0.034588
C       0.623705   -0.592386   -1.088294
N       1.149522    0.197263   -2.026156
C       1.735120   -0.429108   -3.050175
C       1.799442   -1.810652   -3.144829
C       1.211394   -2.519878   -2.098419
N       0.620780   -1.930074   -1.065074
H       0.987220    1.817272    0.036836
H      -0.556654    1.805159   -0.839432
H      -0.547310    1.630269    0.944811
H       2.165777    0.209907   -3.818149
H       2.276440   -2.308276   -3.979083
H       1.214859   -3.608037   -2.089764
