14

O       0.061794    1.202910    0.277492
C       0.185400   -0.150192   -0.020682
C      -1.189373   -0.797897   -0.319492
O      -0.735109   -1.227306   -1.639284
C       0.531075   -0.563575   -1.493113
C       0.725892    0.550241   -2.421645
N       0.915528    1.434711   -3.140475
C      -1.631378   -1.888818    0.523242
C      -1.992839   -2.787253    1.234402
H       0.934174    1.582451    0.428196
H       0.782454   -0.700086    0.713953
H      -1.965256   -0.028700   -0.411516
H       1.365070   -1.267047   -1.597797
H      -2.320025   -3.581729    1.859430
