17

O      -0.386194    1.212257    0.185423
C       0.072114   -0.124910   -0.013971
C       0.937724   -0.209202   -1.194466
C       1.621733   -0.226189   -2.182490
C       0.798874   -0.571249    1.252660
C       1.818682    0.351865    1.898040
C       0.511535    0.131719    2.578068
C       1.050936   -2.026691    1.353932
O       0.678320   -2.849244    0.553174
H      -0.598491    1.575898   -0.679868
H      -0.779758   -0.804293   -0.163589
H       2.230088   -0.264069   -3.052412
H       2.712913   -0.098670    2.315456
H       1.969604    1.296895    1.390418
H      -0.225643    0.922464    2.536369
H       0.482852   -0.487241    3.468728
H       1.619658   -2.323381    2.266443
