21

C      -0.102105    1.556046    0.120581
C      -0.037015    0.048637   -0.039185
C      -1.202563   -0.679450    0.606457
C       0.555893   -0.582944   -1.274534
C       1.141665    0.190307   -2.437385
O       2.229017   -0.499474   -3.033983
C       1.321165   -0.657968    0.051606
C       2.548898    0.065218    0.203682
C       3.595531    0.653530    0.306379
H       0.807192    2.055589   -0.216661
H      -0.950435    1.968824   -0.436980
H      -0.243010    1.814894    1.175977
H      -2.151603   -0.366689    0.155618
H      -1.118023   -1.763693    0.485446
H      -1.256242   -0.462169    1.679309
H       0.114131   -1.529715   -1.575579
H       0.387179    0.300750   -3.223785
H       1.439009    1.199790   -2.127325
H       2.933594   -0.521537   -2.375848
H       1.312685   -1.624744    0.547787
H       4.510993    1.178657    0.423632
