25

C       0.646788    1.181954    0.062033
C       0.107259   -0.243930    0.193237
C      -1.411860   -0.336826    0.011178
O      -1.678066    0.132358   -1.307313
C      -3.027257    0.418207   -1.587323
C      -1.913997   -1.757012    0.210718
C      -1.944402   -2.389209    1.583375
C      -3.236895   -2.141955    0.849580
C      -4.241312   -1.145123    1.386550
H       1.734835    1.203273    0.177758
H       0.395754    1.599844   -0.915587
H       0.218470    1.838603    0.828348
H       0.578740   -0.893635   -0.554645
H       0.360802   -0.657950    1.175075
H      -1.895837    0.337418    0.739268
H      -3.445783    1.149464   -0.877951
H      -3.061325    0.848424   -2.592044
H      -3.660287   -0.479846   -1.569036
H      -1.588596   -2.409991   -0.596294
H      -1.575847   -3.402316    1.701189
H      -1.734374   -1.743347    2.431814
H      -3.698085   -3.023809    0.410807
H      -3.755452   -0.280558    1.848346
H      -4.905240   -0.771997    0.599215
H      -4.867905   -1.612459    2.154470
