14

O      -0.011288    0.057792    0.047051
C      -0.021672    1.249631    0.099684
C      -1.061280    2.315068    0.046298
C      -0.456934    3.525233    0.694765
C       0.921128    3.192521    1.240797
C       1.063565    2.347591   -0.052809
C       2.306914    2.109837   -0.704922
C       3.359182    1.893661   -1.244847
N      -0.095909    3.228800   -0.713238
H      -2.107723    2.240368   -0.217388
H      -1.084028    4.374860    0.939803
H       1.572836    4.068071    1.208396
H       1.026151    2.674936    2.197981
H       4.284693    1.696725   -1.727548
