18

C       0.244560    1.159678    0.663800
C      -0.012792   -0.091932   -0.135586
C      -1.402985   -0.564578   -0.335297
N      -0.640128   -0.015107   -1.468951
N       1.479117    1.825168    0.273205
C       2.058444    1.882464   -0.954512
C       3.159403    2.705358   -0.835984
C       3.155140    3.103928    0.515542
N       2.135170    2.572440    1.185088
H      -0.603161    1.851046    0.554042
H       0.344415    0.932682    1.728693
H       0.780631   -0.833761   -0.078702
H      -1.607609   -1.629317   -0.390834
H      -2.210438    0.029586    0.085405
H      -0.945752    0.939332   -1.648940
H       1.657975    1.331586   -1.790300
H       3.864000    2.965173   -1.609118
H       3.852864    3.748038    1.030655
