17

O      -0.018627    1.462795    0.238544
C      -0.015022    0.072908    0.040861
C      -0.486914   -0.832307    1.142361
C      -1.348939   -0.614184   -0.102319
C      -2.642938    0.093518   -0.039604
C      -3.915780   -0.347124   -0.361992
C      -4.757265    0.749603   -0.085448
N      -4.075496    1.797595    0.369002
N      -2.798268    1.371255    0.395718
H       0.692008    1.677032    0.852362
H       0.788878   -0.278289   -0.604411
H      -0.007835   -1.794855    1.283113
H      -0.834438   -0.350765    2.050246
H      -1.360345   -1.441129   -0.804485
H      -4.186949   -1.322373   -0.733398
H      -5.829457    0.817606   -0.199129
H      -2.044443    2.000464    0.620104
