18

C      -0.201922    1.612735    0.112152
C      -0.002238    0.101520    0.034658
C      -1.292675   -0.552667   -0.179251
N      -2.306707   -1.061863   -0.401072
C       1.108776   -0.496341   -0.963110
N       1.923473    0.305588   -1.831765
C       1.771575   -1.061577    0.283667
C       2.043799   -0.024259    1.294976
N       0.674745   -0.566156    1.217312
H       0.748034    2.151135    0.110855
H      -0.782803    1.960252   -0.746606
H      -0.747610    1.872986    1.023496
H       0.650764   -1.288182   -1.558554
H       1.403003    0.656177   -2.628098
H       2.347637    1.093349   -1.356608
H       2.172143   -2.065849    0.364288
H       2.552188   -0.340689    2.200220
H       2.248274    1.004571    1.015386
