21

C      -0.131001    1.528730    0.091274
C      -0.012951   -0.010493   -0.012704
C      -1.417036   -0.628457   -0.045943
C       0.780838   -0.424537   -1.270668
C       2.248992    0.017911   -1.247927
C       2.902808   -0.285502    0.067999
C       2.210918   -0.529605    1.187708
C       0.733081   -0.484914    1.249511
O       0.143647   -0.760690    2.276973
H       0.845335    2.016688    0.167946
H      -0.642089    1.928280   -0.791496
H      -0.711343    1.804438    0.976385
H      -1.988187   -0.232582   -0.892439
H      -1.367305   -1.717345   -0.148934
H      -1.955435   -0.407972    0.877648
H       0.751004   -1.518479   -1.353077
H       0.280606   -0.030906   -2.163302
H       2.804971   -0.469762   -2.057637
H       2.338256    1.096184   -1.448326
H       3.990710   -0.296586    0.094724
H       2.703192   -0.762059    2.127195
