19

C      -0.094262    1.512106    0.107460
C      -0.035343    0.023841   -0.005960
C      -0.113778   -0.757676   -1.094596
C       0.027815   -2.229812   -0.801543
C       0.120198   -2.304360    0.735071
C       1.313297   -3.094637    1.301509
O       1.291371   -3.138796    2.707530
C       0.183561   -0.839704    1.177255
O       0.418247   -0.456928    2.310252
H       0.814624    1.895574    0.583224
H      -0.209404    1.989552   -0.868549
H      -0.928564    1.819187    0.747724
H      -0.247698   -0.388856   -2.107187
H      -0.811529   -2.806408   -1.206661
H       0.930665   -2.631083   -1.282722
H      -0.790984   -2.739469    1.162708
H       1.276446   -4.129729    0.943121
H       2.249539   -2.651968    0.916132
H       1.148824   -2.227540    3.005853
