13

N      -0.101608    1.243654   -0.452362
C      -0.027938    0.019349   -0.157824
N       0.994668   -0.910620    0.094693
C       0.086385   -2.001707    0.452413
C      -0.503631   -1.961525    1.877022
O      -1.536156   -1.032969    1.475210
C      -1.094594   -1.049506    0.100618
H       0.818024    1.689145   -0.472216
H       1.887370   -0.712632    0.528148
H       0.300370   -2.964567   -0.010018
H      -0.938641   -2.911728    2.210905
H       0.148544   -1.560276    2.661765
H      -1.897703   -1.217419   -0.616299
