16

N       0.228136    0.839034   -0.649430
C      -0.529307   -0.307725   -0.548985
O      -1.193785   -0.737174   -1.473949
N      -0.403550   -0.930936    0.684686
C      -1.058626   -2.060510    1.184343
N      -0.705326   -2.425476    2.353423
C      -2.102277   -2.748372    0.325225
C      -1.477133   -3.701962   -0.691636
O      -1.708823   -4.882212   -0.712611
H       0.036643    1.380181   -1.477569
H       0.454294    1.370760    0.175889
H       0.276873   -0.574246    1.341449
H      -1.223539   -3.251099    2.646167
H      -2.758799   -3.331756    0.973329
H      -2.678819   -2.008786   -0.235919
H      -0.800795   -3.219236   -1.422257
