21

C       0.404479    1.219581    0.027979
C      -0.090151   -0.246082   -0.002569
C       0.502690   -1.038705   -1.226780
C       1.606491   -1.934322   -0.689417
C       2.719559   -1.318447    0.122201
C       1.536433   -1.942158    0.820874
C       0.387200   -1.051618    1.262993
C      -1.551917   -0.220490   -0.070242
C      -2.753175   -0.189362   -0.125799
H       1.494306    1.276120    0.078826
H       0.077401    1.751386   -0.870181
H      -0.004594    1.742215    0.897462
H      -0.279059   -1.660036   -1.672442
H       0.844368   -0.347085   -2.004651
H       1.826537   -2.841070   -1.242428
H       3.655062   -1.866557    0.162754
H       2.848146   -0.242201    0.133752
H       1.704774   -2.854689    1.382462
H       0.655072   -0.368250    2.076270
H      -0.432152   -1.677151    1.627920
H      -3.813526   -0.167821   -0.174876
