15

C       1.009129    1.047421    0.038908
N       0.307291    0.041029   -0.769325
C      -0.371724    0.613396    0.407515
C      -0.627341   -0.339905    1.504406
N      -1.311187   -0.111482    2.605935
C      -1.252429   -1.288570    3.317587
C      -0.528584   -2.231918    2.636162
N      -0.130502   -1.608225    1.475609
H       1.855173    0.670067    0.605456
H       1.134917    2.049294   -0.362614
H      -0.051837    0.450768   -1.626176
H      -1.164655    1.340460    0.258489
H      -1.736083   -1.389242    4.277391
H      -0.270863   -3.254744    2.854277
H       0.368505   -1.995071    0.690543
