20

C      -0.391880    1.493336   -0.096885
C       0.042615    0.040117    0.014823
C       1.337249   -0.684390   -0.338946
N       2.624804   -0.134622    0.122318
C       2.846245    1.354154    0.147446
C       2.435224    1.415472    1.650043
C       2.125379   -0.103369    1.533991
C       0.774495   -0.701494    1.095423
O       0.207576   -1.758429    1.790600
H       0.316683    2.208554    0.312898
H      -0.562704    1.756434   -1.146890
H      -1.342198    1.636563    0.431031
H      -0.758729   -0.619112   -0.327994
H       1.334959   -1.449617   -1.108849
H       3.894574    1.600571   -0.043978
H       2.229121    1.919353   -0.554253
H       3.271520    1.626750    2.319951
H       1.607531    2.072100    1.921749
H       2.635760   -0.771190    2.235311
H      -0.592444   -1.443725    2.223911
