15

O       0.027367    1.413257    0.006564
C      -0.009097   -0.000481    0.002359
C      -1.441970   -0.474192    0.013123
C      -2.518190    0.405927    0.023618
C      -3.806594   -0.128496    0.032895
C      -3.978196   -1.504934    0.031426
C      -2.817667   -2.275082    0.020518
F      -2.939047   -3.601632    0.018675
N      -1.593653   -1.808066    0.011613
H       0.947279    1.690260   -0.000173
H       0.485302   -0.422372   -0.886714
H       0.500497   -0.428136    0.879991
H      -2.339746    1.472000    0.024420
H      -4.671658    0.526439    0.041222
H      -4.951748   -1.977822    0.038282
