21

C      -0.153617    1.559996   -0.008136
C       0.023804    0.047172    0.014416
C       1.202544   -0.637926   -0.788959
C       1.448511   -0.632500   -2.269805
C       2.155385   -0.160989    0.367877
C       0.880185   -0.646851    1.149828
C       0.633741   -0.655087    2.630582
C       0.931965   -1.816777    0.156836
O       0.824000   -3.006556    0.133410
H       0.770733    2.120257    0.148600
H      -0.571146    1.875358   -0.970485
H      -0.861254    1.867248    0.769514
H      -0.949468   -0.429625   -0.149616
H       1.576617    0.385425   -2.653355
H       2.351030   -1.200826   -2.517263
H       0.610195   -1.091710   -2.804199
H       3.075649   -0.730805    0.518270
H       2.352828    0.909977    0.405626
H       0.629046    0.359177    3.044032
H      -0.331577   -1.118084    2.860840
H       1.408642   -1.226719    3.151675
