12

O       0.021129    1.361772    0.328517
C      -0.059823    0.037850    0.123152
C      -1.154642   -0.599388   -0.274973
O      -1.192914   -1.979726   -0.375104
C      -0.087565   -2.730853   -0.152708
O      -0.129484   -3.919262   -0.250140
C       1.184614   -1.985880    0.223254
N       2.260156   -2.617572    0.381567
O       1.109274   -0.617307    0.400600
H       0.945371    1.628806    0.248176
H      -2.085605   -0.118054   -0.522025
H       3.022297   -1.985964    0.635349
