16

O       0.138066   -0.026766    0.119706
C       0.084985    1.178254    0.005661
C       1.257505    2.051936   -0.049429
C       2.579325    1.628479   -0.776996
C       2.580195    1.877465    0.680331
N       2.884628    3.346125    0.447120
C       3.138851    3.032359   -1.047384
C       1.996486    3.980089   -1.448065
C       1.443261    3.575020   -0.072401
H      -0.893430    1.708500   -0.047754
H       2.631632    0.700342   -1.329730
H       2.824006    1.284572    1.551924
H       4.155135    3.128887   -1.428307
H       2.330882    5.020593   -1.454143
H       1.409118    3.755514   -2.341117
H       0.775517    4.206454    0.513367
