16

N      -0.203893    1.434386    0.000194
C       0.027649    0.028166   -0.019744
C      -0.992850   -0.885260   -0.006313
N      -2.344953   -0.617328    0.027083
C      -3.427688   -1.465007    0.042252
N      -3.346608   -2.735455    0.026873
O      -0.525251   -2.143727   -0.030135
C       0.845712   -2.053235   -0.060176
C       1.234355   -0.754631   -0.055262
H       0.226699    1.871760    0.809704
H       0.189414    1.888691   -0.818913
H      -2.520893    0.376679    0.041431
H      -4.359072   -0.885535    0.069305
H      -4.281454   -3.137048    0.043520
H       1.363397   -2.996376   -0.081639
H       2.249323   -0.387736   -0.074378
