16

N       0.123728    1.444019    0.385040
C      -0.018434    0.085019    0.103297
C      -1.125170   -0.658642   -0.184516
C      -0.659747   -2.004088   -0.387002
C       0.680896   -1.975411   -0.193359
O       1.098141   -0.708774    0.093615
C      -2.510186   -0.162959   -0.240840
C      -3.467271   -0.585633   -1.279797
O      -3.547833   -1.116477    0.040259
H       0.868191    1.608934    1.053740
H       0.311014    2.003235   -0.441509
H      -1.267475   -2.868419   -0.602404
H       1.449255   -2.730564   -0.198038
H      -2.659126    0.815711    0.214253
H      -4.278803    0.081414   -1.570036
H      -3.141062   -1.285430   -2.048265
