23

C      -0.103750    1.556435    0.019895
C       0.048871    0.036376    0.026473
C       0.806230   -0.532654   -1.205861
C       1.655995   -1.724281   -0.691098
C       1.240262   -1.952073    0.796873
C       2.383713   -2.534100    1.646529
C       0.827761   -0.520480    1.228941
C       0.079634   -2.846028    0.865417
C      -0.866166   -3.586955    0.927920
H       0.875573    2.050023    0.009512
H      -0.655137    1.896168   -0.863532
H      -0.645681    1.909184    0.904116
H      -0.951010   -0.412849    0.049559
H       0.108810   -0.835396   -1.991577
H       1.453752    0.235499   -1.642448
H       1.529378   -2.631854   -1.285306
H       2.721404   -1.471321   -0.712483
H       3.251872   -1.867291    1.617873
H       2.075480   -2.655868    2.689025
H       2.689978   -3.514971    1.270967
H       1.741556    0.067347    1.391932
H       0.254046   -0.510282    2.159887
H      -1.701341   -4.240400    0.981610
