16

C       1.769719    1.293528   -0.077723
C       0.799710    0.429189    0.740464
C      -0.381036    0.042813   -0.034599
N      -1.298404   -0.281555   -0.658867
C       1.490308   -0.837311    1.310696
O       2.657644   -1.044868    1.121124
C       0.619262   -1.805061    2.127710
C      -0.160870   -1.144930    3.164891
C      -0.786583   -0.577645    4.019560
H       2.142962    0.742310   -0.942755
H       1.268654    2.199655   -0.424344
H       2.624225    1.569541    0.542383
H       0.435526    0.987681    1.613247
H      -0.053467   -2.315793    1.424899
H       1.290825   -2.558272    2.549352
H      -1.351441   -0.092874    4.777421
