14

N      -0.108054    1.304735    0.034117
C       0.039498   -0.032592   -0.156892
O       0.998682   -0.572406   -0.655161
O      -1.062185   -0.679816    0.330561
C      -1.025242   -2.121937    0.232342
C      -1.088231   -2.699292    1.574866
C      -1.120861   -3.187511    2.670675
C      -2.125108   -2.575666   -0.618971
C      -3.011523   -2.962046   -1.329816
H       0.549944    1.907875   -0.427045
H      -1.005499    1.671783    0.299262
H      -0.067132   -2.381840   -0.235713
H      -1.152202   -3.619977    3.640363
H      -3.797555   -3.305629   -1.956245
