15

C       0.055813   -1.145660   -0.051262
C       0.032730    0.057097   -0.000888
C      -0.029451    1.473067    0.080906
C      -1.106505    2.369482    0.689155
N      -0.535705    3.541477   -0.076474
C       0.815800    3.705695    0.595801
C       1.238735    2.376521   -0.001116
C       0.143575    2.514545   -1.006754
H       0.080458   -2.205923   -0.098776
H      -2.100375    2.128306    0.305832
H      -1.145625    2.504558    1.775498
H       1.342276    4.550812    0.144709
H       0.773564    3.830972    1.683033
H       2.216189    1.928164   -0.124243
H       0.073621    2.474307   -2.084156
