19

O      -0.135491    1.427930    0.240078
C      -0.056636    0.054227    0.012543
C      -0.376705   -0.849572    1.160766
C      -1.341101   -0.753085   -0.008464
C      -2.590700    0.032842    0.093851
C      -3.360951    0.434087    1.311897
C      -4.076862   -0.261501    0.169655
C      -4.212646    0.719596   -0.985583
O      -2.791393    1.024643   -0.944216
H      -0.755112    1.794329   -0.403610
H       0.730715   -0.253328   -0.674979
H       0.188028   -1.767064    1.281038
H      -0.671566   -0.361203    2.082462
H      -1.366731   -1.587243   -0.703919
H      -3.201696   -0.186824    2.187530
H      -3.536500    1.487431    1.514946
H      -4.604477   -1.199017    0.280420
H      -4.474585    0.252265   -1.941482
H      -4.834246    1.608524   -0.825362
