15

O      -0.035360    1.387916   -0.054989
C       0.053372   -0.003923    0.000464
C       0.098872   -0.626443    1.444750
O      -1.349832   -0.529362    1.505581
C      -1.365901   -0.626873    0.056526
C      -1.287463   -2.112412   -0.326371
O      -1.951288   -2.620493   -1.201689
C      -0.248367   -2.821108    0.469277
C       0.475714   -2.082197    1.324591
H       0.854077    1.753182   -0.098728
H       0.763360   -0.414077   -0.727293
H       0.596612   -0.079131    2.247501
H      -2.193525   -0.099799   -0.419271
H      -0.098329   -3.880875    0.295862
H       1.310748   -2.483748    1.889894
