22

C      -0.500635    1.462586    0.257308
C      -0.061264    0.040881    0.007574
C      -0.823896   -1.109984    0.562082
N       0.475851   -0.730378    1.154183
C       1.609247   -1.518568    0.653615
C       1.602302   -1.510361   -0.902641
C       3.006329   -1.516690   -1.509074
O       0.851906   -2.617206   -1.429869
C       0.786604   -0.241182   -1.229000
H       0.357333    2.144994    0.262278
H      -1.192561    1.800201   -0.522890
H      -1.005992    1.546995    1.222723
H      -1.674447   -0.916574    1.211161
H      -0.880991   -2.020570   -0.024493
H       2.527550   -1.049820    1.026872
H       1.577009   -2.541244    1.047881
H       3.553578   -2.419977   -1.211974
H       2.947410   -1.503021   -2.601197
H       3.589600   -0.652132   -1.177910
H       1.303689   -3.427267   -1.169150
H       0.195580   -0.394375   -2.135953
H       1.459556    0.605080   -1.407423
