21

C      -0.029097    1.584722    0.089643
C       0.106838    0.075965    0.099567
C      -0.708100   -0.625609   -0.969940
N       1.472399   -0.429969    0.360215
C       0.400121   -0.683812    1.351705
C       0.562358   -0.076078    2.732988
C       1.718938   -0.691009    3.533151
N       2.933462   -0.556086    2.925706
O       1.565001   -1.210947    4.621145
H       0.654924    2.059175    0.794846
H       0.203049    1.975879   -0.907119
H      -1.052639    1.886627    0.337351
H      -0.395850   -0.304059   -1.970429
H      -0.596965   -1.713135   -0.910410
H      -1.773183   -0.391542   -0.866066
H       1.651554   -1.269970   -0.184476
H       0.009086   -1.700328    1.375302
H       0.736764    1.001159    2.657714
H      -0.346298   -0.231103    3.318614
H       2.971917   -0.290370    1.950783
H       3.720744   -1.020133    3.349092
