16

C       0.059842    1.573288    0.330064
C      -0.001432    0.104408   -0.123483
C      -1.384740   -0.468767   -0.068564
C      -2.163035   -0.857565   -1.129733
O      -3.377348   -1.323071   -0.701457
C      -3.367019   -1.227550    0.645591
C      -2.187726   -0.716109    1.090541
C      -1.908988   -0.851174   -2.516858
N      -1.665823   -0.831238   -3.650170
H       1.087625    1.944640    0.285568
H      -0.560420    2.206234   -0.311167
H      -0.296126    1.687239    1.358721
H       0.382190    0.017835   -1.145030
H       0.660557   -0.497912    0.510731
H      -4.263548   -1.562091    1.141856
H      -1.913353   -0.538229    2.118734
