14

N      -0.140189    1.178815   -0.746113
C      -0.028794    0.078046   -0.149280
N       0.974765   -0.642212    0.490735
C       0.183578   -1.857184    0.680901
C       0.112767   -2.345346    2.056772
N       0.076987   -2.757988    3.135010
C      -1.058481   -1.045598    0.110649
C      -2.150532   -0.760439    1.009628
C      -3.055886   -0.531958    1.764498
H       0.739868    1.694455   -0.786096
H       1.974807   -0.581457    0.366285
H       0.462127   -2.689643    0.024722
H      -1.417450   -1.483131   -0.824822
H      -3.851960   -0.323656    2.436235
