25

C       1.228442    0.133096    1.259850
C       0.274155    0.357463    0.080717
C       0.793785   -0.234644   -1.235070
C       0.832162   -1.782371   -1.300604
C       1.141178   -2.031140   -2.804239
C      -0.280677   -1.430349   -2.986450
C      -0.637176   -2.153060   -1.655875
C      -0.066518    0.035081   -2.539221
C      -1.355681    0.843705   -2.384333
H       1.370127   -0.931997    1.469135
H       2.215881    0.562568    1.055289
H       0.845486    0.600443    2.172605
H      -0.709740   -0.059716    0.326577
H       0.119344    1.435745   -0.047457
H       1.808297    0.155952   -1.387899
H       1.380408   -2.301579   -0.513722
H       1.986638   -1.497995   -3.251546
H       1.189012   -3.093412   -3.056343
H      -0.860298   -1.583885   -3.898630
H      -0.771845   -3.229110   -1.790835
H      -1.447994   -1.757813   -1.038568
H       0.557693    0.549123   -3.280032
H      -2.061087    0.381956   -1.687007
H      -1.156578    1.859510   -2.028265
H      -1.861894    0.931410   -3.352051
