19

C      -0.041072    1.567913   -0.003961
C       0.074668    0.042715   -0.035733
N       0.734464   -0.367521   -1.274181
C       1.493297   -1.373882   -1.267334
O       1.845049   -2.206511   -0.252040
C       1.454700   -1.873951    1.077976
C       2.615219   -1.249643    1.883579
N       2.066476    0.089928    1.573776
C       0.750359   -0.501570    1.221106
H       0.954794    2.013762    0.067105
H      -0.514384    1.924654   -0.921705
H      -0.637790    1.900593    0.852775
H      -0.940936   -0.380793   -0.066537
H       1.975727   -1.712909   -2.182546
H       0.961032   -2.751547    1.496788
H       2.573136   -1.534696    2.944325
H       3.621195   -1.438060    1.496325
H       2.057644    0.752738    2.340162
H       0.038242   -0.518941    2.059535
