19

C      -0.809574    1.239954    0.078431
C      -0.018972   -0.041838   -0.107184
C       1.215874   -0.052832   -1.065051
C       2.071384   -0.780525    0.011202
C       2.960131    0.131345    0.877856
N       1.750927    0.605496    1.603675
C       0.922240   -0.501850    1.049431
C       0.439751   -1.472238    2.008988
N       0.052614   -2.241711    2.782273
H      -0.153385    2.039978    0.431482
H      -1.265083    1.552188   -0.867258
H      -1.614717    1.108554    0.809425
H      -0.682782   -0.875457   -0.359589
H       1.070333   -0.602915   -1.996361
H       1.594305    0.944456   -1.306074
H       2.422041   -1.783289   -0.221867
H       3.660388   -0.439423    1.500683
H       3.509552    0.926955    0.362476
H       1.821585    0.617409    2.613981
