17

C      -0.563876   -0.810778   -0.226877
C      -0.190204    0.323465   -0.358931
C       0.274566    1.695320   -0.500506
C       1.746659    1.880396   -0.039060
C       2.697995    1.249259   -0.949674
C       3.488877    0.763360   -1.712739
C       2.127057    3.349166    0.157989
C       1.528256    4.464960   -0.580368
O       1.164002    4.193461    0.780445
H      -0.899647   -1.811930   -0.116858
H       0.179601    2.009795   -1.545721
H      -0.345401    2.368575    0.101832
H       1.836818    1.399741    0.944419
H       4.183485    0.316440   -2.380235
H       3.143718    3.478824    0.529941
H       2.105622    5.374724   -0.733995
H       0.746572    4.284798   -1.314646
