18

C      -0.049739    1.461514   -0.072448
C       0.006161   -0.032264    0.064508
C      -0.781177   -0.791849    1.088925
C       0.754232   -0.788632    1.142907
C       1.413533   -1.896725    0.427346
C       0.897060   -1.906247   -0.997390
O       0.198401   -0.677463   -1.178221
N       2.305371   -2.644623    0.942442
O       2.785053   -3.566107   -0.012483
H       0.872516    1.842946   -0.520866
H      -0.887200    1.753190   -0.714620
H      -0.187864    1.934270    0.903630
H      -1.279967   -0.224762    1.867334
H      -1.288637   -1.704654    0.796398
H       1.258487   -0.313673    1.974364
H       1.716228   -1.973242   -1.720774
H       0.234760   -2.766743   -1.169110
H       3.465341   -4.035265    0.481511
