21

C      -0.219690    1.537604    0.066131
C       0.046701    0.021758    0.039581
C       0.807937   -0.446444   -1.178685
C       2.071890   -0.872129   -1.104568
C       2.884374   -1.350083   -2.278915
C       1.993386   -1.785249   -3.458157
C       0.903364   -0.763580   -3.717477
O       0.696204   -0.278618   -4.805042
C       0.065903   -0.392788   -2.498483
H       0.720596    2.097171    0.041534
H      -0.824108    1.861420   -0.786658
H      -0.758583    1.817833    0.976385
H       0.604485   -0.259967    0.939271
H      -0.915934   -0.506781    0.090754
H       2.568598   -0.877245   -0.136390
H       3.571266   -0.556588   -2.607591
H       3.526148   -2.185776   -1.976587
H       2.563974   -1.940179   -4.376263
H       1.501753   -2.731457   -3.193055
H      -0.793290   -1.082674   -2.465547
H      -0.364906    0.596870   -2.684113
