21

C       0.156400    1.383598    0.478099
C       1.459131    1.596844   -0.341538
C       1.368332    0.120936   -0.800726
C      -0.113274    0.097809   -0.351605
O       1.632181   -0.146480   -2.192403
C       2.622939   -1.186207   -2.120570
C       2.051939   -2.143382   -1.045537
C       2.327524   -0.889544   -0.154570
C       3.599035   -0.668465   -1.035626
H       0.358993    1.164027    1.529642
H      -0.595788    2.172932    0.428953
H       1.305548    2.266390   -1.191895
H       2.363123    1.903813    0.192461
H      -0.466613   -0.793884    0.174345
H      -0.769008    0.288635   -1.205177
H       2.916942   -1.487851   -3.124690
H       1.019837   -2.477427   -1.173361
H       2.710371   -2.981585   -0.810854
H       2.357512   -0.928315    0.934063
H       4.403269   -1.367669   -0.800007
H       3.982801    0.347300   -1.154381
