16

C      -0.054104    1.420472    0.161811
C      -0.014236   -0.094858   -0.073885
C      -1.410813   -0.683643   -0.140888
C      -1.714660   -2.027148    0.359825
O      -2.063189   -0.861852    1.114297
C       0.756791   -0.438852   -1.340549
F       2.005832    0.049501   -1.307327
F       0.851743   -1.767303   -1.514386
F       0.158830    0.064210   -2.435573
H       0.954015    1.831250    0.250204
H      -0.561138    1.929931   -0.662998
H      -0.600566    1.629411    1.084241
H       0.519658   -0.581820    0.749246
H      -2.047979   -0.268681   -0.922732
H      -2.552721   -2.582599   -0.056991
H      -0.915260   -2.634859    0.779952
