16

C      -0.019018    1.543225   -0.016908
O       1.352671    1.932175    0.044760
C       2.051357    1.002885    0.872332
C       1.388018   -0.358296    0.615058
C       0.649773   -1.069231    1.772839
O      -0.189773   -0.094986    2.403663
C      -0.663777   -0.726525    1.208514
C      -0.013970    0.007607    0.012828
H      -0.577117    1.945006    0.839999
H      -0.431121    1.963486   -0.938114
H       3.104138    1.040803    0.580301
H       1.964147    1.281799    1.931478
H       1.978527   -1.033253   -0.005763
H       0.967817   -1.912334    2.374923
H      -1.617733   -1.237753    1.264125
H      -0.221750   -0.458962   -0.950927
