23

C       0.110884    1.521157   -0.008712
C      -0.064759   -0.007198    0.004542
C      -1.572098   -0.344514    0.051045
C       0.582707   -0.603521   -1.271927
C       0.757321   -2.121047   -1.225122
C       2.125473   -2.708367   -0.964860
C       1.064986   -2.739308    0.117876
C       1.127717   -1.818125    1.279603
C       0.614815   -0.588080    1.233701
H       1.170297    1.798600    0.004607
H      -0.340803    1.959099   -0.905963
H      -0.367366    1.980800    0.863549
H      -2.100951    0.121027   -0.789175
H      -1.733670   -1.425201    0.003388
H      -2.028165    0.019520    0.977860
H      -0.018798   -0.325183   -2.145247
H       1.559566   -0.125795   -1.410044
H       0.109885   -2.691997   -1.882701
H       2.390043   -3.644869   -1.444535
H       2.950743   -2.014122   -0.840857
H       0.641031   -3.718475    0.327398
H       1.595203   -2.184296    2.191212
H       0.656548    0.050091    2.114358
