23

C      -0.143520    1.616924    0.027649
C      -0.016717    0.091077    0.011771
C       0.758564   -0.454714    1.217027
C       0.889803   -1.984095    1.225551
C       1.811932   -2.586806    0.181557
C       2.485947   -3.634600    0.658048
C       2.126791   -3.911538    2.100681
C       1.470357   -2.581015    2.544586
O       2.421729   -1.719637    3.156412
H       0.841830    2.095907    0.011402
H      -0.705241    1.981506   -0.838169
H      -0.660823    1.961296    0.930133
H      -1.017953   -0.359964   -0.008319
H       0.472615   -0.221645   -0.919695
H       1.754624    0.002651    1.250502
H       0.257119   -0.138925    2.140798
H      -0.119034   -2.405766    1.083442
H       1.875266   -2.214824   -0.835234
H       3.178368   -4.247520    0.091467
H       1.421580   -4.751742    2.173594
H       2.980216   -4.155959    2.742109
H       0.695169   -2.723495    3.302035
H       3.147004   -1.606058    2.530982
