19

C       0.082510    1.455321   -0.160349
C       0.052642   -0.024424    0.033463
C      -0.975116   -0.831619    0.760754
C       0.490298   -0.966142    1.139418
C       1.243139   -1.706102    0.038553
C       0.990617   -3.190656   -0.218719
C       1.537098   -3.628399   -1.562656
O       2.369051   -4.486823   -1.712707
O       0.671602   -0.836778   -0.982533
H       1.106078    1.812205   -0.310078
H      -0.507615    1.737036   -1.039794
H      -0.343745    1.964206    0.708801
H      -1.567702   -0.287577    1.489886
H      -1.504892   -1.629482    0.247850
H       0.864924   -0.765795    2.134220
H       2.322760   -1.518338    0.102775
H       1.458185   -3.793698    0.565535
H      -0.090731   -3.376654   -0.215367
H       1.106835   -3.082294   -2.429488
