20

C      -0.173313    1.479754    0.042902
N      -0.016919    0.034432    0.106556
C       1.287538   -0.508991   -0.246630
C       0.815162   -0.534648    1.175063
C       1.485655    0.284458    2.287396
C       1.653819   -0.703108    3.479379
O       1.321598   -0.147608    4.745771
C       0.796426   -1.884088    3.084296
C       0.339432   -1.779501    1.837210
H       0.736103    2.046498    0.299736
H      -0.467996    1.756388   -0.974421
H      -0.974220    1.791446    0.721380
H       1.282455   -1.411382   -0.853903
H       2.089376    0.191743   -0.481146
H       2.431731    0.739343    1.987947
H       0.825766    1.096490    2.614427
H       2.703029   -1.002341    3.591417
H       0.371113    0.013373    4.746174
H       0.615427   -2.705185    3.768646
H      -0.287567   -2.492188    1.313851
