10

O       0.051257    0.013333    0.002530
C       0.000744    1.197477    0.009559
O      -1.151393    1.952881    0.029724
C      -0.778624    3.270558    0.031559
C       0.557792    3.355310    0.013347
O       1.062725    2.055333   -0.000683
C       1.443840    4.440060    0.006777
C       2.207381    5.370221    0.001090
H      -1.555036    4.014257    0.046390
H       2.881030    6.191942   -0.003925
