19

C       0.059289    0.902452    0.419310
O      -0.375936    0.023635   -0.613031
C      -1.553340   -0.654793   -0.317722
C      -1.566078   -2.075326   -0.840875
O      -0.363569   -2.537609   -1.391749
C      -1.519855   -1.831112    0.652510
O      -0.305881   -2.155960    1.268502
C      -2.692845   -2.126734    1.551397
O      -2.720486   -3.487417    1.932532
H       0.980659    1.370670    0.065843
H      -0.688169    1.685186    0.607839
H       0.253971    0.351311    1.344695
H      -2.462266   -0.054353   -0.381109
H      -2.454185   -2.486723   -1.311471
H       0.146359   -1.748694   -1.627608
H       0.224336   -2.585164    0.577261
H      -2.647154   -1.464039    2.431937
H      -3.632415   -1.915770    1.029388
H      -1.822755   -3.691680    2.221720
