12

N       0.168940    1.338707    0.174575
C      -0.038645   -0.017165    0.047226
C      -1.139311   -0.825118   -0.015377
N      -0.721521   -2.140719   -0.044721
C       0.574929   -2.093018   -0.003883
O       1.064281   -0.798621    0.056225
C       1.511857   -3.140772   -0.018269
C       2.318918   -4.033963   -0.029763
H       1.039444    1.657489   -0.229602
H      -0.613638    1.899169   -0.130559
H      -2.181166   -0.550955   -0.039808
H       3.024617   -4.827410   -0.040183
