20

C      -0.096897    1.591535    0.265453
C       0.055798    0.083322    0.203768
N       1.157152   -0.516970   -0.707279
C       2.132840   -0.168530    0.437591
C       0.929256   -0.734694    1.211753
C       0.754219   -0.907478    2.684924
O       1.582207   -0.597058    3.506405
C       0.933457   -1.827800    0.089127
C      -0.235070   -2.726887   -0.268178
H      -0.361292    1.967853   -0.728559
H      -0.915304    1.849633    0.945850
H       0.794072    2.124088    0.601709
H      -0.918183   -0.350167   -0.026652
H       3.047637   -0.764964    0.422152
H       2.365042    0.890727    0.522664
H      -0.219966   -1.356432    2.992861
H       1.851302   -2.425085    0.083607
H      -0.122374   -3.065806   -1.303486
H      -0.222492   -3.613952    0.373611
H      -1.218650   -2.263149   -0.173870
