19

C      -0.620436    1.041627   -0.382783
O      -0.272423   -0.330687   -0.467208
C       0.944602   -0.561299   -1.124366
C       1.214714   -2.060430   -1.085197
C       0.583349   -2.544883   -2.387123
O       0.289649   -3.671256   -2.685989
C       0.376176   -1.304324   -3.265877
C      -1.087898   -1.123801   -3.664863
O       0.893418   -0.211861   -2.503432
H       0.144151    1.610235    0.167275
H      -0.742041    1.486138   -1.376780
H      -1.565351    1.097761    0.161065
H       1.735492    0.064220   -0.689595
H       2.291194   -2.259855   -1.122305
H       0.792304   -2.558091   -0.212573
H       0.997986   -1.400414   -4.164800
H      -1.716248   -1.026068   -2.776073
H      -1.204243   -0.227964   -4.280253
H      -1.419228   -1.994801   -4.237369
