17

C      -0.043431    1.514383   -0.029792
C      -0.001047    0.009647   -0.011033
N      -0.024849   -0.623476   -1.191341
C       0.011723   -1.949878   -1.199024
C       0.073616   -2.665460   -0.000459
O       0.110093   -4.013025   -0.026616
N       0.098080   -2.058707    1.177892
C       0.061306   -0.720158    1.189113
C       0.089708   -0.044315    2.532676
H       0.842476    1.952101    0.445569
H      -0.090174    1.859933   -1.063428
H      -0.915700    1.903414    0.508881
H      -0.007533   -2.463925   -2.155138
H       0.150410   -4.300282    0.896044
H       0.954465    0.622927    2.625321
H      -0.802091    0.574130    2.687015
H       0.138297   -0.795186    3.322298
