15

O       0.067193    0.098065   -0.428718
C       0.010710    1.252609   -0.108103
C      -1.115449    2.186646    0.385083
C      -0.060948    3.340715    0.465086
C       1.019437    2.362416   -0.030080
C       2.459792    2.195834    0.403897
C       2.153793    2.573347   -1.009598
H      -1.920816    2.327958   -0.340873
H      -1.557707    1.879868    1.336866
H      -0.260991    4.177848   -0.207421
H       0.102704    3.729059    1.472798
H       2.862659    2.954686    1.066526
H       2.790087    1.182673    0.607711
H       2.272713    1.820966   -1.782199
H       2.344794    3.593580   -1.325633
