21

C      -0.185478    1.535781    0.021941
C       0.033945    0.008281    0.054140
C       0.690514   -0.462210   -1.221172
C       1.928543   -0.947099   -1.302173
C       2.851019   -1.080291   -0.120242
C       2.344990   -0.292941    1.095534
C       0.832876   -0.505693    1.288899
C       0.345038    0.139663    2.568818
O      -0.449388   -0.355997    3.327298
H       0.762808    2.081779    0.044822
H      -0.701870    1.820392   -0.900175
H      -0.800014    1.875145    0.861822
H      -0.961844   -0.451338    0.110952
H       0.085673   -0.376506   -2.122022
H       2.313593   -1.275700   -2.264681
H       2.962445   -2.143478    0.139673
H       3.858104   -0.741428   -0.393594
H       2.890860   -0.596010    1.995914
H       2.549066    0.775296    0.951159
H       0.627500   -1.577974    1.386451
H       0.781677    1.144009    2.782117
