19

C      -0.669653    1.373768    0.081285
C       0.005916    0.006751   -0.004943
C       0.683461   -0.425681   -1.320154
C       1.377717    0.712397   -2.067835
O       2.019828    0.137540   -3.196525
C       1.705986   -1.449237   -0.795198
O       2.078588   -0.992981    0.520464
C       1.130051   -0.159559    1.021263
O       1.213905    0.336053    2.108320
H       0.023361    2.186555   -0.152655
H      -1.520759    1.438736   -0.602706
H      -1.027110    1.536299    1.100856
H      -0.735135   -0.763295    0.254897
H      -0.017320   -0.902454   -2.010851
H       0.637350    1.464838   -2.374468
H       2.104273    1.211386   -1.406387
H       2.517528    0.826057   -3.646616
H       1.273916   -2.452687   -0.708057
H       2.607332   -1.497952   -1.406434
