19

O      -0.141388    1.448955    0.200262
C      -0.049866    0.035903    0.275770
C      -1.356063   -0.532847   -0.276006
C      -1.396061   -2.036405   -0.233747
C      -0.518596   -2.890791   -1.136346
O      -1.041198   -4.211440   -1.065569
C      -2.410209   -4.165895   -0.678456
C      -2.576988   -2.856820    0.057101
O      -1.572598   -2.651788    1.057132
H       0.651463    1.824041    0.594219
H       0.804717   -0.339482   -0.310503
H       0.084128   -0.308825    1.311909
H      -2.184928   -0.128324    0.312692
H      -1.486714   -0.185530   -1.307770
H      -0.555903   -2.492437   -2.164093
H       0.528346   -2.932801   -0.818169
H      -3.085115   -4.187781   -1.550396
H      -2.611433   -5.046144   -0.059224
H      -3.561312   -2.443745    0.261544
