17

C      -0.116271    1.522464    0.027636
C       0.009303    0.018301   -0.078239
C       0.675085   -0.726017   -1.199606
N       1.226776   -0.748979    0.173928
C       2.488461    0.045500    0.170520
C       2.720618    0.624775   -1.239365
C       1.592634    0.040496   -2.104198
O       1.499609    0.125719   -3.302417
H       0.691975    2.074314   -0.453875
H      -1.054795    1.841563   -0.436356
H      -0.151162    1.823727    1.080534
H      -0.863237   -0.494813    0.325155
H       0.222507   -1.627891   -1.600005
H       2.437435    0.814559    0.946354
H       3.291732   -0.642096    0.446560
H       2.698513    1.717962   -1.292976
H       3.677074    0.312384   -1.667707
