17

C      -0.035288    1.494509    0.076719
C       1.503777    1.395424   -0.027009
C       1.874202    0.606298    1.232967
C       0.655148   -0.392040    1.233524
C       1.672588   -1.481902    0.890956
C       2.183961   -0.968369   -0.401140
C       1.224832    0.109947   -0.861945
N      -0.055993   -0.017561   -0.021235
N       2.830038   -0.524173    0.872933
H      -0.484788    1.907340    0.984886
H      -0.508860    1.934541   -0.803830
H       2.155721    2.205205   -0.355565
H       2.168307    1.144953    2.130938
H       0.001764   -0.487896    2.097716
H       1.750590   -2.496687    1.261942
H       2.796460   -1.557976   -1.070889
H       1.023211    0.210514   -1.926496
