16

O       0.033587   -0.035245    0.133344
C      -0.012875    1.167117    0.016971
C      -1.319420    1.942456   -0.062402
C      -1.207050    3.190726   -0.945201
C      -0.065691    4.096902   -0.468133
C       1.196346    3.333317   -0.210065
C       1.234205    2.000011   -0.012335
C       2.479240    1.325576    0.198926
N       3.495148    0.798745    0.368883
H      -2.096496    1.255598   -0.405468
H      -1.580503    2.234893    0.965358
H      -1.010994    2.886129   -1.980181
H      -2.152401    3.740944   -0.950259
H       0.135998    4.892598   -1.194262
H      -0.348957    4.616839    0.460878
H       2.126816    3.894602   -0.180757
