17

C       0.115599    1.494590   -0.006273
C      -0.051327    0.017922   -0.038829
C      -1.127377   -0.812420    0.028164
C      -2.574399   -0.462297    0.165780
C      -0.594053   -2.159953   -0.061637
C       0.758944   -2.019717   -0.175103
O       1.103134   -0.713734   -0.163070
C      -1.333621   -3.363645   -0.035938
C      -1.991889   -4.372354   -0.011009
H       0.742582    1.808441    0.836066
H       0.589553    1.864206   -0.922727
H      -0.855958    1.982392    0.093754
H      -3.157261   -0.845774   -0.679021
H      -3.004309   -0.902448    1.072375
H      -2.724264    0.619194    0.213884
H       1.562764   -2.730664   -0.267932
H      -2.562965   -5.266926    0.010135
