21

C      -0.055663    1.527788    0.034676
C       0.025900    0.004003   -0.013081
C       0.996406   -0.549816   -1.108120
C       1.954322   -1.306630   -0.176756
O       2.152096   -0.367780    0.923045
C       0.734552   -0.627107    1.220907
C       0.295572   -0.264122    2.611606
C       1.000676   -2.081293    0.769649
O      -0.097453   -2.803491    0.278309
H       0.930884    1.957796    0.235191
H      -0.409249    1.926719   -0.921763
H      -0.746502    1.875007    0.810389
H      -0.973029   -0.427076   -0.125857
H       0.500429   -1.210697   -1.822931
H       1.512131    0.245761   -1.651881
H       2.880573   -1.720774   -0.576323
H       0.358037    0.815523    2.776379
H      -0.743472   -0.572946    2.766548
H       0.920955   -0.761284    3.358223
H       1.562972   -2.624637    1.536954
H       0.175872   -3.711068    0.115839
