15

O      -0.105525    0.008149    0.182916
C      -0.045405    1.202100    0.118448
N      -1.002143    2.199098    0.084995
C      -0.075752    3.332052    0.022393
C       1.050862    2.275949    0.022384
N       2.315989    2.265159    0.722170
C       2.321530    2.282315   -0.762394
C       2.819440    1.124245   -1.449281
C       3.244256    0.181116   -2.060060
H      -2.009084    2.158907    0.082418
H      -0.156859    3.939331   -0.885225
H      -0.096638    3.979606    0.906816
H       2.538673    3.191244    1.081425
H       2.556050    3.231486   -1.242497
H       3.605162   -0.669772   -2.582906
