19

O       0.227972    1.368950   -0.302053
C       0.041322   -0.010264   -0.024933
C       0.648631   -0.481340    1.331843
C      -0.555608   -0.547690    2.307495
C      -0.979604    0.870238    2.667044
C      -1.982810    1.286432    1.888871
C      -2.437678    0.195645    0.972649
C      -1.420849   -0.481273    0.040030
C      -1.707820   -1.055718    1.400675
H      -0.222874    1.858020    0.394762
H       0.541734   -0.517585   -0.855197
H       1.075362   -1.484328    1.214937
H       1.450632    0.188513    1.656242
H      -0.355898   -1.176432    3.179248
H      -0.434257    1.477684    3.380938
H      -2.423570    2.277269    1.893707
H      -3.473170    0.163764    0.651034
H      -1.844372   -0.939274   -0.847357
H      -2.194477   -2.008992    1.566073
