17

C      -0.414346    1.389269    0.224796
C      -0.029694   -0.060124    0.022801
C       0.616222   -0.594630   -1.208030
C       1.236250    0.366613   -2.196862
C       2.308349    1.120769   -1.392180
O       2.954661    2.059991   -1.771922
C       2.404834    0.449677   -0.011896
N       1.356915   -0.565354    0.092159
H       0.188660    2.095523   -0.350361
H      -1.458483    1.534875   -0.071049
H      -0.331044    1.665677    1.281687
H      -0.709739   -0.744264    0.528490
H       0.343592   -1.584348   -1.563095
H       1.727370   -0.164904   -3.019935
H       0.540961    1.080007   -2.648838
H       3.385235   -0.034617    0.076440
H       2.347560    1.202719    0.780576
