19

C      -0.036371    1.293627   -0.256752
O      -0.036744   -0.101406   -0.054801
C      -1.332125   -0.649040    0.048382
C      -1.176431   -2.164918    0.175760
C      -2.530607   -2.911378    0.112651
N      -2.631255   -3.210480   -1.306583
C      -1.374900   -3.238258   -1.906201
O      -1.119174   -3.616157   -3.026442
N      -0.478921   -2.746216   -0.962607
H       1.005878    1.612515   -0.330103
H      -0.561311    1.569850   -1.184017
H      -0.513282    1.825327    0.581111
H      -1.858845   -0.247159    0.931159
H      -1.933121   -0.405587   -0.843540
H      -0.644016   -2.381527    1.107106
H      -2.500072   -3.816766    0.734260
H      -3.360473   -2.286518    0.459375
H      -3.314670   -3.864177   -1.653520
H       0.347017   -2.281595   -1.308132
