14

N       0.020116   -1.196658   -0.122899
C      -0.002368   -0.039715   -0.064696
C      -0.028673    1.370439    0.005935
C      -1.106473    2.237295    0.159046
C      -2.530764    2.744060    0.331079
C      -1.873693    4.185939    0.334641
N      -0.597581    3.468659    0.166643
N       0.734601    3.560766    0.034525
C       1.083661    2.274921   -0.064335
H      -3.204231    2.553095   -0.506169
H      -3.020776    2.465494    1.265642
H      -2.131118    4.827838   -0.510188
H      -1.946210    4.739725    1.272703
H       2.121939    2.004294   -0.184760
