20

C      -0.249500    1.317652   -0.003506
N       0.066934   -0.099956    0.113116
C       1.444913   -0.528576   -0.153824
C       0.899277   -0.547032    1.222338
C       1.215491    0.249881    2.492886
C       0.225400   -0.676653    3.253210
O      -1.058334   -0.103469    3.316085
C       0.302060   -1.691899    2.056255
O      -0.933000   -2.172880    1.599111
H       0.612661    1.974721    0.185659
H      -0.619134    1.519361   -1.013215
H      -1.034963    1.563150    0.717206
H       1.557400   -1.447912   -0.723461
H       2.170248    0.248731   -0.393471
H       2.252444    0.121457    2.817034
H       0.959010    1.310526    2.508454
H       0.549471   -1.040554    4.235917
H      -1.649825   -0.771332    2.934968
H       0.991803   -2.522421    2.241890
H      -1.115287   -1.635815    0.804876
