19

O      -0.168872   -0.000146    0.018026
C      -0.031583    1.202476    0.088264
C       1.253101    1.906244    0.003850
C       1.264985    3.251786    0.059396
C       2.496374    4.050122   -0.026563
C       3.655293    3.735705    0.924343
C       3.747694    3.328166   -0.511678
C       3.590174    1.884783   -0.957080
C       2.521127    1.107909   -0.164483
H      -0.911536    1.873177    0.221339
H       0.321089    3.784430    0.162631
H       2.371765    5.093812   -0.293074
H       4.251161    4.576432    1.261932
H       3.478704    2.980383    1.681446
H       4.411664    3.923252   -1.131957
H       3.312653    1.887407   -2.018604
H       4.550549    1.361919   -0.886654
H       2.914829    0.828951    0.821423
H       2.283190    0.162001   -0.659060
