17

C       0.051450    1.555155    0.077739
C       0.014939    0.101916    0.044843
C      -0.009000   -1.101503    0.020836
C       0.009179   -2.534623   -0.031976
O      -0.469715   -3.268989    1.123325
C      -1.251789   -3.341223   -0.054434
C      -2.611822   -2.697331   -0.045179
C       1.207590   -3.202263   -0.658617
O       2.047561   -2.645528   -1.310290
H       1.020064    1.928997   -0.270458
H      -0.725360    1.988402   -0.561491
H      -0.105259    1.928831    1.095403
H      -1.195315   -4.309349   -0.558707
H      -2.570216   -1.707597    0.412109
H      -2.989432   -2.600928   -1.068131
H      -3.313969   -3.320387    0.518110
H       1.230970   -4.294991   -0.449924
