20

C       0.052537    1.595469    0.215197
C       0.061916    0.086690    0.100374
C       1.288559   -0.691015   -0.366991
C       2.619820   -0.001709   -0.621985
N       3.324758    0.495173    0.553713
C       2.800622    0.367246    1.694100
O       1.606337   -0.167603    2.054782
C       0.818621   -0.800846    1.057631
C       0.213924   -2.063148    1.612753
H       1.027962    1.998647    0.495234
H      -0.231459    2.050678   -0.739556
H      -0.671658    1.923705    0.968128
H      -0.886732   -0.333670   -0.225971
H       1.097764   -1.553501   -0.999112
H       3.291002   -0.709342   -1.123104
H       2.505865    0.839109   -1.319513
H       3.312110    0.730175    2.583748
H      -0.388850   -1.845605    2.500672
H      -0.430627   -2.536272    0.866985
H       0.994114   -2.776980    1.896887
