25

C       0.138997    1.593813    0.043859
C       0.028873    0.063236    0.043695
C       0.739305   -0.528312    1.262981
O       2.114733   -0.175438    1.203895
C      -1.425206   -0.436491   -0.008071
C      -2.184932   -0.074005   -1.290112
C      -3.596296   -0.668082   -1.329504
C      -4.358714   -0.308964   -2.597780
O      -5.643776   -0.909415   -2.524364
H       1.181300    1.897366    0.163512
H      -0.238904    2.029058   -0.885324
H      -0.436503    2.024246    0.873318
H       0.557478   -0.320822   -0.840598
H       0.270295   -0.142324    2.184054
H       0.615483   -1.623295    1.266038
H       2.539439   -0.482894    2.009480
H      -1.429890   -1.529788    0.101735
H      -1.974044   -0.042575    0.859615
H      -2.249469    1.016549   -1.390496
H      -1.613366   -0.427431   -2.159809
H      -3.549360   -1.761381   -1.251327
H      -4.177091   -0.320008   -0.466209
H      -4.436136    0.787442   -2.687140
H      -3.802006   -0.666672   -3.479911
H      -6.126353   -0.684947   -3.325072
