20

C      -0.014124    1.444970   -0.074977
C      -0.024603   -0.065944    0.016652
C      -1.368474   -0.715532    0.523816
C      -0.568140   -1.424481    1.623816
C       0.687295   -0.674720    1.249184
N       0.625611   -2.114310    1.164558
C       0.804509   -2.755610   -0.140893
C       0.323388   -1.962017   -1.372111
O       0.478173   -0.560103   -1.217785
H       0.995889    1.796889   -0.307678
H      -0.686330    1.787173   -0.867400
H      -0.328498    1.893031    0.872170
H      -2.020787    0.054168    0.945022
H      -1.955985   -1.325192   -0.165371
H      -0.938502   -1.679114    2.610644
H       1.448561   -0.199607    1.860758
H       1.882875   -2.932319   -0.226729
H       0.317465   -3.736569   -0.119947
H       0.922527   -2.239141   -2.244652
H      -0.722478   -2.202746   -1.608608
