17

C       0.004604    1.421372   -0.076393
C       1.259308    0.652067    0.049175
N      -0.095659   -0.040308    0.066846
C       0.235600   -0.591644   -1.296550
C       1.655738    0.019813   -1.275964
C       2.322074    0.798663   -2.426509
O       3.465579   -0.079297   -2.423646
C       2.901035   -0.883746   -1.369900
H      -0.342969    1.958854    0.800520
H      -0.263562    1.881598   -1.026244
H       1.889630    0.700144    0.932655
H       0.234994   -1.684283   -1.271765
H      -0.443778   -0.249696   -2.085906
H       1.785658    0.771598   -3.384616
H       2.594016    1.837411   -2.197959
H       3.541567   -0.905945   -0.478280
H       2.707463   -1.914944   -1.695142
