23

C      -0.050515    1.511496    0.092757
C      -0.011425   -0.003374   -0.001026
C      -0.846659   -0.782569    0.987626
C       0.660592   -0.747523    1.130516
C       1.498292   -1.979050    0.853118
O       2.667421   -1.698747    0.097171
C       2.476179   -1.707191   -1.305141
C       1.642471   -0.552800   -1.877303
C       0.172737   -0.541771   -1.418231
H       0.853387    1.964166   -0.330784
H      -0.911099    1.917079   -0.452806
H      -0.128226    1.843983    1.132700
H      -1.445795   -0.235004    1.708060
H      -1.298005   -1.712944    0.655208
H       1.052712   -0.122843    1.929087
H       1.845940   -2.410584    1.798499
H       0.899683   -2.751948    0.346206
H       3.483287   -1.674510   -1.734652
H       2.018905   -2.665342   -1.611088
H       2.125145    0.398256   -1.623166
H       1.683635   -0.642283   -2.971045
H      -0.232499   -1.557926   -1.498265
H      -0.423598    0.070399   -2.106314
