15

N      -0.035908    1.388572   -0.190651
C      -0.037125    0.012182   -0.006273
C      -1.040406   -0.844455    0.329970
O      -0.484639   -2.100250    0.460202
C       0.819660   -1.924208    0.188891
N       1.149157   -0.699123   -0.095578
C       1.724809   -3.082658    0.241798
C       1.433242   -4.270766    1.061731
O       1.260852   -4.303399   -0.350880
H       0.746657    1.687287   -0.756997
H      -0.905544    1.762029   -0.543740
H      -2.098464   -0.762939    0.500208
H       2.757273   -2.821210    0.023978
H       2.262282   -4.859676    1.451870
H       0.514939   -4.297139    1.644624
