16

O      -0.532403    1.256507   -0.375235
C      -0.230449   -0.075238   -0.116148
C      -0.436048   -0.543446    1.309736
O      -0.926348    0.443629    2.169446
C      -1.369221   -1.032197    0.226624
O      -2.664129   -0.523576    0.348744
C      -3.234738   -0.130650   -0.894646
C      -4.572225    0.408410   -0.641434
N      -5.628391    0.839827   -0.464813
H      -0.650072    1.671103    0.494572
H       0.602396   -0.459743   -0.698160
H       0.258288   -1.232539    1.780331
H      -1.892058    0.398249    2.131067
H      -1.310467   -2.069026   -0.103188
H      -2.614134    0.633974   -1.375260
H      -3.322496   -0.991381   -1.573012
