20

C       0.007331    1.482474    0.030546
C       0.071442   -0.020598    0.001438
N      -0.798515   -0.834272    0.886460
C       0.680083   -0.912144    1.028379
C       1.365275   -1.975820    0.147234
C       0.300169   -2.253378   -0.948807
C       0.511421   -0.754383   -1.288878
C       2.023558   -1.041115   -0.935705
O       2.910064   -0.018355   -0.577353
H       0.890216    1.922502   -0.446192
H      -0.871364    1.848575   -0.513342
H      -0.053792    1.861885    1.056924
H      -1.151163   -0.225194    1.623904
H       1.139946   -0.556016    1.944629
H       1.918243   -2.774470    0.641119
H       0.682762   -2.910573   -1.731651
H      -0.689158   -2.561372   -0.623920
H       0.210637   -0.321833   -2.243497
H       2.521933   -1.609272   -1.724188
H       2.545501    0.437339    0.188439
