14

C      -0.055614    1.437728    0.015260
N       0.009986   -0.016902    0.100433
C      -1.170553   -0.719540    0.031233
N      -2.367525   -0.197492    0.059612
O      -3.237303   -1.270315    0.020945
N      -2.555153   -2.465130   -0.030266
C      -1.292000   -2.149829   -0.027322
N      -0.239091   -3.046720   -0.138381
H       0.954193    1.841848    0.110648
H      -0.502773    1.791981   -0.923373
H      -0.665432    1.816026    0.839114
H       0.739355   -0.434356   -0.462538
H      -0.550961   -4.009198   -0.098016
H       0.489199   -2.881368    0.546577
