21

C      -0.032392    1.545556    0.035088
C       0.015125    0.016340   -0.005563
C      -1.376544   -0.614649   -0.023372
C      -1.375320   -2.132339   -0.062411
O      -0.329862   -2.771586   -0.085383
C      -2.688386   -2.807913   -0.035708
C      -2.827395   -4.143927   -0.781716
C      -2.739251   -4.175473    0.697562
O      -1.637135   -4.658449    1.368224
H       0.975642    1.970781    0.047807
H      -0.553465    1.953196   -0.838705
H      -0.555927    1.905826    0.927944
H       0.570992   -0.321698   -0.886571
H       0.568835   -0.367987    0.857605
H      -1.961139   -0.305895    0.855927
H      -1.960203   -0.259381   -0.885649
H      -3.563723   -2.170784    0.022335
H      -3.778666   -4.333043   -1.266655
H      -1.947794   -4.456991   -1.334714
H      -3.647894   -4.358380    1.262259
H      -0.852971   -4.299001    0.916262
