20

C       0.051369    1.460115   -0.198699
C       0.016986   -0.049241    0.091177
C       0.799718   -0.398674    1.364063
C      -1.408331   -0.538674    0.152121
C      -2.445323   -0.277593    1.267806
C      -2.922368   -1.742661    1.034737
O      -3.649438   -2.469839    1.648118
C      -1.950497   -1.944712   -0.098816
N      -2.107057   -0.845869   -1.076681
H       1.083112    1.811892   -0.296612
H      -0.477619    1.692824   -1.127495
H      -0.417929    2.028089    0.613006
H       0.478805   -0.567994   -0.757926
H       0.399160    0.127783    2.237512
H       0.767713   -1.472646    1.572841
H       1.848873   -0.106220    1.259390
H      -2.038706   -0.184558    2.279253
H      -3.150095    0.540347    1.089758
H      -1.469157   -2.858661   -0.426473
H      -3.058521   -0.482494   -1.103391
