15

N      -0.108257    1.255129    0.382334
C      -0.018668    0.036230    0.027022
N       1.166142   -0.673817   -0.175562
C       1.337740   -1.917960   -0.767786
O       2.428489   -2.439494   -0.800243
C       0.111851   -2.532096   -1.429044
C      -1.208255   -2.027851   -0.907083
O      -1.343768   -2.001042    0.510163
C      -1.267974   -0.746771   -0.187145
H       0.809578    1.694112    0.482391
H       2.028326   -0.262562    0.159407
H       0.185608   -2.322758   -2.504149
H       0.193707   -3.616617   -1.315262
H      -2.096516   -2.358558   -1.444360
H      -2.170737   -0.144317   -0.174905
