10

O       0.077728    0.200481   -0.902183
C       0.044825    1.243921   -0.290746
N       1.115628    1.805536    0.345916
C       2.430669    1.197841    0.283526
C       3.431444    2.089895   -0.313763
N       4.218120    2.808980   -0.758851
H      -0.868577    1.855432   -0.171360
H       1.008404    2.699257    0.798637
H       2.780595    0.893837    1.277272
H       2.323995    0.294682   -0.325413
