17

C      -0.119541    1.512106   -0.048804
C      -0.016586   -0.005652   -0.020502
O      -1.258986   -0.592598   -0.296414
C       1.286107   -0.623304   -0.711494
N       1.993464   -0.148720    0.527246
C       0.745302   -0.635666    1.209633
C       0.701111   -2.129652    0.842123
C       1.065693   -2.118765   -0.443799
H       0.834870    1.977193    0.192809
H      -0.427136    1.851554   -1.047238
H      -0.877470    1.849184    0.667059
H      -1.755965    0.010039   -0.857383
H       1.666654   -0.291356   -1.678681
H       2.780380   -0.760392    0.745190
H       0.563609   -0.323814    2.239076
H       0.376512   -2.944290    1.472778
H       1.120709   -2.924129   -1.161770
