25

C      -0.106850    1.515228   -0.166326
C       1.445155    1.531665   -0.159601
C       1.421528    0.163344    0.583850
C      -0.051022   -0.011466    0.107772
C       2.451284   -0.896064    0.231708
C       3.899070   -0.549204    0.628052
C       4.661632   -1.890593    0.543467
C       3.585738   -3.001264    0.743350
C       2.243144   -2.256656    0.924107
H      -0.520966    2.064172    0.684555
H      -0.615621    1.851413   -1.073022
H       1.852597    1.422505   -1.170690
H       1.948605    2.371491    0.326092
H       1.438059    0.335230    1.668496
H      -0.771833   -0.434326    0.812246
H      -0.097410   -0.588692   -0.822220
H       2.421939   -1.056172   -0.857961
H       4.340946    0.231976    0.002402
H       3.904300   -0.173997    1.660152
H       5.137805   -1.996254   -0.436539
H       5.462838   -1.950085    1.285431
H       3.545497   -3.653041   -0.135136
H       3.809472   -3.646315    1.597666
H       2.045005   -2.085253    1.990538
H       1.390027   -2.814806    0.527176
