18

C      -0.024141    1.440461    0.039510
C       1.496857    1.466446   -0.026409
C       1.973024    0.452284    1.083720
C       0.682134   -0.343479    1.346879
C       1.219089   -1.797185    1.547904
C       2.131417   -1.853575    0.328290
C       2.395143   -0.575120   -0.010983
C       1.433960    0.186859   -0.884454
N       0.056357   -0.071758   -0.026492
H      -0.541648    1.836761    0.918999
H      -0.501577    1.823221   -0.867213
H       2.117622    2.333041   -0.255412
H       2.636754    0.740094    1.897985
H      -0.019504   -0.011971    2.118455
H       1.688091   -1.890330    2.537145
H       0.451198   -2.573557    1.472890
H       2.067744   -2.667346   -0.387834
H       1.248003    0.107673   -1.953416
