19

C       0.082806    1.347276   -0.310666
C       1.523004    1.528538    0.215920
C       1.302030    0.144520    0.817662
O      -0.024890    0.038676    0.301836
C       2.181023   -1.064166    0.886150
C       3.676492   -0.810379    0.927174
O       3.863241    0.249111    1.863472
C       2.847270    0.162586    2.860649
C       1.633889   -0.422185    2.161888
H      -0.663410    2.042102    0.090470
H      -0.024109    1.291988   -1.399724
H       2.299846    1.590228   -0.547778
H       1.663545    2.336659    0.935443
H       1.799350   -2.008768    0.516304
H       4.206657   -1.723678    1.242348
H       4.106908   -0.475092   -0.022755
H       3.155533   -0.490349    3.693218
H       2.701259    1.174220    3.254755
H       0.845468   -0.889535    2.740430
