13

N       0.092861   -1.117195   -0.071613
C       0.041038    0.039990   -0.032994
C      -0.030624    1.450641    0.022850
C      -0.914638    2.441874    0.841735
C      -0.829852    3.455608   -0.287395
C       0.209608    3.464387    0.824057
C       1.099127    2.494144   -0.008380
C       0.067783    2.485383   -1.111094
H      -1.692764    2.268046    1.570824
H      -1.537951    4.215632   -0.584602
H       0.452781    4.232443    1.544008
H       2.163479    2.308699   -0.045943
H       0.177865    2.291830   -2.168953
