16

O      -1.028839    1.433596   -0.603612
C       0.027351    1.057502   -0.159325
C       1.341514    1.778433   -0.355186
C       1.229436    3.012208   -1.264542
N       0.373030    4.040055   -0.717263
C       0.989191    5.270373   -0.611353
O       0.480125    6.308134   -0.247012
C       2.402227    5.023127   -1.042823
C       2.537411    3.752764   -1.422400
H       0.092441    0.125778    0.445041
H       1.721239    2.063416    0.635893
H       2.065658    1.056146   -0.758450
H       0.860538    2.676928   -2.245973
H      -0.621190    3.914820   -0.625538
H       3.147479    5.805577   -1.038489
H       3.431351    3.262952   -1.787764
