18

C      -0.008541    1.455074   -0.353109
C       1.444216    1.600859    0.247271
C       1.425920    0.083413    0.583808
C       0.940831   -0.384763    1.984427
C      -0.515031   -0.542717    1.394742
C       0.011282   -0.042825    0.029584
O       0.108083   -1.002572   -1.039357
C       1.439444   -1.343873   -1.043682
N       2.255072   -0.825037   -0.214309
H      -0.786296    2.053959    0.126897
H      -0.061904    1.612571   -1.432176
H       2.208040    1.871709   -0.484090
H       1.528367    2.268695    1.108069
H       1.398604   -1.321079    2.309131
H       1.042724    0.352916    2.784118
H      -0.869952   -1.574503    1.356184
H      -1.287699    0.076145    1.857304
H       1.698176   -2.073974   -1.803233
