18

C       0.031569    1.556871   -0.151704
C       0.037566    0.046862   -0.063399
C       1.155741   -0.721245   -0.628172
O       1.051934   -0.506261    0.783192
C      -1.329665   -0.606279    0.032527
C      -1.410996   -2.062197    0.578020
C      -2.323234   -1.477968    1.683098
O      -2.972098   -1.914084    2.593154
N      -2.135783   -0.202326    1.197800
H       1.050725    1.941633   -0.231128
H      -0.539154    1.896353   -1.023093
H      -0.424592    1.989947    0.744530
H       1.002432   -1.748849   -0.955229
H       1.971405   -0.195413   -1.122361
H      -1.861257   -0.464024   -0.917475
H      -1.900364   -2.789171   -0.071082
H      -0.464275   -2.450394    0.953760
H      -2.620573    0.656508    1.413500
