19

C      -0.216499    1.467758    0.208802
C       0.113135   -0.002706   -0.033533
C       0.767043   -0.234910   -1.397373
O       1.052125    0.655393   -2.156871
N       0.982177   -1.589889   -1.662845
C       1.708997   -2.137409   -2.745090
O       2.447365   -1.505521   -3.459992
N       1.512593   -3.498831   -2.846372
C       2.116047   -4.232503   -3.945698
H       0.684712    2.081020    0.141801
H      -0.918257    1.838677   -0.542145
H      -0.661160    1.603504    1.198546
H       0.795579   -0.381907    0.739202
H      -0.791024   -0.622671    0.034626
H       0.663428   -2.237685   -0.958619
H       0.665852   -3.880265   -2.455085
H       3.059155   -3.746709   -4.196343
H       2.308559   -5.264357   -3.639929
H       1.486638   -4.238593   -4.844783
