18

C      -0.381296    1.452214   -0.486599
O      -0.374097    0.053037   -0.610474
C      -0.911587   -0.598457    0.520982
C      -0.867710   -2.078501    0.311648
C      -0.384854   -2.724468   -0.794892
N      -0.529372   -4.086304   -0.582477
C      -1.094704   -4.292226    0.639664
O      -1.314529   -5.577093    1.022724
C      -1.324762   -3.076489    1.236294
H       0.049524    1.865418   -1.402078
H      -1.402606    1.848598   -0.364626
H       0.219470    1.791647    0.373017
H      -0.342548   -0.315433    1.425909
H      -1.949802   -0.259684    0.694574
H       0.042964   -2.336823   -1.702199
H      -0.266768   -4.822008   -1.214045
H      -1.713392   -5.564914    1.897586
H      -1.763504   -2.914457    2.209338
