19

C       0.003718   -1.204383    0.140930
C       0.025132   -0.004713    0.063443
C       0.020372    1.433796   -0.059410
C      -1.209621    2.048501   -0.728633
C      -0.888186    3.275623   -1.598026
C       0.128142    4.211429   -0.934574
C       1.471611    3.495392   -0.741547
C       1.315361    2.163181   -0.044929
O       0.486357    2.140807    1.114349
H      -0.007523   -2.263303    0.220536
H      -1.707025    1.282063   -1.329529
H      -1.905668    2.320905    0.073460
H      -0.482809    2.939947   -2.561992
H      -1.816920    3.810738   -1.821927
H       0.275642    5.107808   -1.545302
H      -0.250611    4.542878    0.038536
H       1.947806    3.314898   -1.714741
H       2.166478    4.117265   -0.163988
H       2.221855    1.563387    0.047415
