16

O       0.065412    1.351002   -0.334843
C       0.078969   -0.010858    0.044351
C      -1.300867   -0.579545    0.052012
C      -2.016339   -1.875347    0.119168
C      -2.849753   -1.341449    1.280511
N      -2.455844    0.066995    0.850721
C      -3.166824    0.145935   -0.466271
O      -4.018573    0.896567   -0.817037
C      -2.291791   -0.895743   -1.064358
H      -0.509744    1.812368    0.287495
H       0.699173   -0.541404   -0.685550
H       0.539601   -0.150948    1.034669
H      -1.643304   -2.872926   -0.082736
H      -3.930458   -1.516780    1.295935
H      -2.417003   -1.569860    2.257018
H      -2.103721   -1.167301   -2.094131
