17

C       0.350232    0.945203   -0.446446
O      -0.132951    0.235373    0.688072
C       0.626939   -0.803499    1.085340
N       0.275252   -1.489638    2.080927
C       1.086430   -2.625985    2.512953
C       0.193959   -3.881620    2.550356
C       2.312811   -2.881609    1.742805
C       3.308659   -3.089741    1.100535
H       0.409149    0.298436   -1.330224
H      -0.366984    1.744502   -0.636463
H       1.336178    1.385795   -0.255216
H       1.529652   -0.973373    0.485157
H       1.387140   -2.408493    3.547635
H      -0.121274   -4.150499    1.538650
H       0.734678   -4.726336    2.985139
H      -0.695432   -3.671211    3.148725
H       4.195383   -3.284850    0.549308
