20

O      -0.068784    1.351724    0.287544
N       0.038946   -0.046231    0.164536
C      -1.088474   -0.618393   -0.035110
C      -2.415540    0.082165   -0.148081
C      -3.306662   -0.103988    1.104117
C      -3.825605   -1.503838    1.333342
C      -3.131267   -2.643779    1.332429
C      -1.647163   -2.824688    1.114564
C      -1.043677   -2.120468   -0.123503
H       0.853212    1.611193    0.382766
H      -2.246072    1.147087   -0.310596
H      -2.950338   -0.315542   -1.018800
H      -2.742979    0.237925    1.983263
H      -4.158942    0.576970    1.012560
H      -4.892090   -1.573654    1.537567
H      -3.682964   -3.559059    1.537059
H      -1.096836   -2.479185    2.001399
H      -1.432930   -3.894850    1.027404
H      -1.583601   -2.450628   -1.019757
H       0.001328   -2.425063   -0.225924
