18

C      -0.348750    1.532180   -0.028061
C       0.029092    0.063546    0.011564
O       0.933755   -0.223133   -1.058150
C       1.536832   -1.474570   -0.773688
C       1.762703   -1.484177    0.731864
O       2.883310   -0.630429    1.133285
C       2.027175    0.324634    1.643331
N       2.269285    1.414740    2.212792
C       0.764270   -0.430399    1.274321
H       0.526818    2.161056    0.145189
H      -0.780464    1.777768   -1.001877
H      -1.089990    1.753602    0.745413
H      -0.875415   -0.559334   -0.105767
H       0.870461   -2.311204   -1.045241
H       2.462379   -1.554726   -1.348721
H       1.836753   -2.468558    1.194643
H       3.274655    1.584589    2.278902
H       0.106712   -0.689547    2.102877
