22

C      -0.241303    1.524102    0.266229
C       0.206384    0.139759   -0.196147
N       0.779160   -0.594101    0.932535
C       0.004988   -1.346665    1.886989
C      -1.154437   -2.131056    1.245364
C      -0.097467   -2.888652    0.359882
C       0.059503   -4.355080    0.752439
O      -0.192215   -2.753435   -1.048340
C       1.014265   -2.013902    0.973046
H       0.588744    2.066009    0.728713
H      -0.614846    2.110695   -0.578916
H      -1.046595    1.449756    1.005321
H      -0.619867   -0.386944   -0.686488
H       1.000984    0.229496   -0.945124
H       0.095761   -1.108630    2.941337
H      -1.669815   -2.792515    1.946011
H      -1.896771   -1.538539    0.704125
H      -0.828972   -4.931122    0.464891
H       0.928740   -4.788389    0.247269
H       0.193824   -4.468122    1.832188
H      -0.860604   -3.371269   -1.364523
H       2.020633   -2.368714    1.177327
