15

O       0.035634    1.354942   -0.271693
C       0.090141    0.013273    0.177417
C      -1.290773   -0.614792    0.129726
O      -1.867472   -0.529730   -1.214386
C      -2.176135   -1.928041   -1.176542
C      -0.934878   -2.754235   -1.114203
C      -1.489514   -2.129969    0.154287
H      -0.397779    1.329657   -1.133542
H       0.799571   -0.582664   -0.415715
H       0.453662    0.033751    1.210977
H      -1.961025   -0.099264    0.828116
H      -3.137137   -2.242591   -1.565691
H      -1.086632   -3.827588   -1.176025
H      -0.022561   -2.393930   -1.578875
H      -1.784411   -2.711726    1.016354
