21

C       0.047649    1.514497   -0.025259
C       0.008178   -0.002765   -0.030916
C       0.721328   -0.659758   -1.230778
C       0.008813   -2.030881   -1.385395
C      -0.725146   -2.138832   -0.051456
O       0.307146   -2.116802    0.976009
C       0.276614   -0.727864    1.340865
C      -1.212011   -0.525204    1.704362
C      -1.367039   -0.748542    0.181394
H       1.084833    1.869968   -0.019060
H      -0.429494    1.919096   -0.925223
H      -0.451689    1.954175    0.842463
H       0.623571   -0.041299   -2.128600
H       1.791797   -0.776782   -1.035300
H      -0.700451   -2.028546   -2.221645
H       0.700887   -2.864003   -1.529722
H      -1.363736   -3.014622    0.083213
H       1.114211   -0.494915    1.999431
H      -1.642830   -1.261230    2.386669
H      -1.472251    0.486274    2.016726
H      -2.271626   -0.509584   -0.378830
