14

O       0.068523    1.364202    0.124118
C       0.060703    0.011794    0.038243
C       0.081010   -0.667317   -1.183894
C       0.071675   -2.053657   -1.207713
C       0.041921   -2.782186   -0.011241
C       0.021696   -2.091385    1.211025
C       0.030962   -0.707900    1.237245
C       0.032309   -4.209386   -0.035679
N       0.024537   -5.367545   -0.056862
H       0.089427    1.744308   -0.760900
H       0.104112   -0.108694   -2.115314
H       0.087402   -2.580466   -2.154543
H      -0.001335   -2.651343    2.138561
H       0.015570   -0.163598    2.173926
