20

C       0.663279    0.499524   -0.769755
C      -0.580895    0.721642    0.059559
O      -0.832451    1.775903    0.605787
C      -1.549801   -0.436153    0.217098
N      -1.089956   -1.802501   -0.110706
C      -1.827264   -2.353206    1.056169
C      -1.883390   -0.935597    1.673843
C      -0.805052   -0.655890    2.711417
O      -3.166368   -0.616284    2.150102
H       1.293372    1.389287   -0.745442
H       1.204086   -0.378057   -0.404034
H       0.383597    0.273843   -1.806355
H      -2.498391   -0.145574   -0.257951
H      -1.394709   -2.157290   -1.010425
H      -2.841425   -2.704574    0.830625
H      -1.285628   -3.125601    1.611747
H       0.175785   -0.984557    2.354090
H      -0.742734    0.415151    2.929065
H      -1.037849   -1.193097    3.635711
H      -3.138103    0.286832    2.486725
