21

C      -0.839384    1.634259    0.017947
C      -0.723361    0.168491    0.424727
C      -1.319176   -0.796251   -0.581836
O      -1.759470   -0.453104   -1.654552
C      -1.398399   -2.262660   -0.132044
C      -2.770980   -2.458771    0.528650
O      -2.935675   -2.207877    1.700081
C      -3.884962   -2.914437   -0.393469
C      -5.264799   -2.911031    0.257261
H      -0.374027    2.280692    0.766923
H      -0.353578    1.811569   -0.944805
H      -1.886990    1.928540   -0.087407
H       0.326581   -0.123963    0.571415
H      -1.208021   -0.034683    1.389804
H      -1.292801   -2.897817   -1.013731
H      -0.626954   -2.488919    0.606618
H      -3.844708   -2.274635   -1.285982
H      -3.615928   -3.917459   -0.755397
H      -6.023168   -3.269482   -0.444014
H      -5.279952   -3.550867    1.143105
H      -5.542348   -1.903731    0.578965
