23

C       0.073941    1.261128    0.247707
O      -0.079353   -0.101666   -0.080243
C       0.596927   -0.532789   -1.247607
C       0.050797    0.127172   -2.512854
C       2.160110   -0.545785   -1.175699
C       2.131738   -2.012395   -1.686798
C       3.067377   -3.003071   -1.027524
O       2.782595   -4.291611   -1.553834
C       0.623314   -2.078908   -1.326059
H       1.132928    1.554876    0.306775
H      -0.429240    1.929979   -0.464962
H      -0.380438    1.403330    1.231675
H       0.253311    1.202654   -2.534236
H       0.512359   -0.310451   -3.403360
H      -1.031475   -0.024445   -2.578246
H       2.708995    0.190178   -1.768862
H       2.494105   -0.490893   -0.134711
H       2.279900   -2.059295   -2.770034
H       4.114072   -2.713620   -1.222102
H       2.917781   -2.975933    0.064778
H       3.343609   -4.931452   -1.106151
H       0.463002   -2.505092   -0.332208
H      -0.054463   -2.557582   -2.035913
