21

C      -0.213555    1.449822   -0.054289
C       0.033844   -0.032262    0.050586
O      -1.194378   -0.805695   -0.006658
C      -0.874061   -1.488588    1.231288
C       0.498218   -0.803249    1.322182
C       1.697274   -1.405988    0.521199
C       1.517483   -2.759546   -0.218532
C       0.959500   -2.007031   -1.468493
C       1.220007   -0.646784   -0.766000
H       0.719005    2.010172    0.069597
H      -0.626273    1.692113   -1.040595
H      -0.927455    1.783810    0.704855
H      -1.568436   -1.199310    2.030585
H      -0.899555   -2.578387    1.122650
H       0.745938   -0.311205    2.263218
H       2.670621   -1.223492    0.979145
H       2.475607   -3.248932   -0.411973
H       0.859190   -3.496532    0.248573
H       1.547623   -2.157635   -2.376326
H      -0.092307   -2.190346   -1.692663
H       1.847817    0.076073   -1.290877
