18

O       0.026514    0.022665   -0.520513
C       0.018992    1.146322   -0.074092
C      -1.271446    1.922638    0.222852
N      -1.368132    3.218512   -0.451795
C      -0.498951    4.293815    0.016093
C       0.987759    3.954964    0.164757
C       1.579323    3.009862   -0.903198
C       1.319358    1.914583    0.163412
O       1.159020    2.926998    1.181509
H      -2.110272    1.289868   -0.080639
H      -1.337106    2.091901    1.303819
H      -1.293868    3.099457   -1.455052
H      -0.616457    5.141767   -0.669377
H      -0.852031    4.625757    1.001790
H       1.565438    4.854025    0.407064
H       1.068243    2.924873   -1.863812
H       2.645003    3.172285   -1.067843
H       2.129459    1.213125    0.377112
