21

C      -0.096052    1.569237   -0.125348
C       0.043099    0.071906    0.037341
C       1.324700   -0.715054   -0.204393
C       2.607124    0.043887   -0.125727
C       2.836390    0.534076    1.095677
C       3.961717    1.407579    1.548741
C       1.728438    0.116297    2.064453
O       1.101323    1.217947    2.726606
C       0.728823   -0.630602    1.190725
H       0.818038    2.098358    0.144073
H      -0.345288    1.816919   -1.163778
H      -0.896683    1.951480    0.515294
H      -0.841883   -0.471204   -0.289896
H       1.275051   -1.622899   -0.796249
H       3.246140    0.207137   -0.988122
H       4.660515    1.622698    0.736153
H       3.587709    2.366654    1.930072
H       4.526999    0.940456    2.367079
H       2.137246   -0.570632    2.825887
H       1.723510    1.568669    3.371684
H       0.217421   -1.477556    1.632296
