19

O       0.089869    1.409533   -0.003811
C       0.004794   -0.005807   -0.020811
C       0.796165   -0.616292    1.133409
O       0.437905   -0.123252    2.437475
C       0.050454   -1.458650    2.079748
C      -1.414762   -1.707665    1.738928
C      -2.105917   -0.365089    1.382829
C      -1.452059   -0.510525   -0.020098
C      -1.482800   -2.050244    0.217415
H      -0.047126    1.679863    0.912274
H       0.474908   -0.320992   -0.960797
H       1.867809   -0.742829    0.991438
H       0.574106   -2.234983    2.634974
H      -1.895509   -2.375737    2.455967
H      -3.190222   -0.487679    1.325355
H      -1.867444    0.507524    1.990947
H      -1.982731   -0.100943   -0.881862
H      -0.676390   -2.657918   -0.205753
H      -2.446721   -2.482892   -0.061801
