16

C       0.043294    1.514752    0.066905
C       0.071324   -0.005359    0.036343
C      -1.117144   -0.609838   -0.512410
C      -2.107743   -1.105037   -0.981748
C       1.337307   -0.815501   -0.201383
N       2.527349   -0.190715    0.367097
C       1.960386   -0.136712    1.656976
O       2.358766    0.327759    2.685467
C       0.704935   -0.856214    1.173151
H       0.974184    1.929517    0.458590
H      -0.117189    1.908951   -0.940926
H      -0.775403    1.864161    0.701705
H      -2.984697   -1.539133   -1.394620
H       1.412030   -1.604991   -0.936747
H       3.037389    0.576623   -0.055503
H       0.152376   -1.643315    1.664046
