17

C       0.116749    1.577071    0.040306
C      -0.262985    0.115738   -0.219516
C       0.651932   -0.558408   -1.220725
O       2.042261   -0.665245   -0.726926
C       2.083243   -2.031549   -0.889663
O       2.989990   -2.772375   -0.696370
C       0.635272   -2.082479   -1.347647
C      -0.393065   -3.095424   -1.100845
O       0.132129   -2.847346   -2.410736
H       1.137925    1.647263    0.424575
H       0.060655    2.169875   -0.878871
H      -0.556434    2.029777    0.773397
H      -0.242634   -0.454776    0.716532
H      -1.287549    0.053543   -0.608695
H       0.656197   -0.047936   -2.188923
H      -0.105620   -4.045331   -0.655227
H      -1.422437   -2.779423   -0.942256
