16

C       0.032821    1.294758    0.117703
C      -0.116937   -0.143428   -0.265184
N       0.525756   -0.702506   -1.190103
O      -1.083843   -0.734020    0.562809
C      -1.322034   -2.054175    0.444795
C      -2.114742   -2.785519   -0.381394
C      -1.982002   -4.144178    0.064231
C      -1.124102   -4.119620    1.114923
O      -0.705628   -2.843522    1.359573
H       0.761777    1.771560   -0.535494
H      -0.930577    1.807801    0.038989
H       0.358149    1.374544    1.159517
H       0.271412   -1.686472   -1.298071
H      -2.717809   -2.403481   -1.188599
H      -2.467465   -5.014722   -0.347723
H      -0.723982   -4.873138    1.771845
