20

C       0.068576    1.452985    0.116398
N      -0.105173    0.016916    0.203093
C      -1.273171   -0.610584   -0.133358
O      -2.257766   -0.012944   -0.530404
C      -1.227188   -2.127942    0.015142
C      -0.877033   -2.766522    1.413042
C      -2.211357   -3.519470    1.369140
C      -3.348139   -2.544687    1.256982
C      -2.561696   -2.874345    0.022948
H       0.871068    1.719901   -0.580905
H      -0.871764    1.868310   -0.248222
H       0.297073    1.890551    1.095038
H       0.661191   -0.545019    0.534787
H      -0.549751   -2.522205   -0.749758
H      -0.001761   -3.418286    1.364453
H      -0.750742   -2.069425    2.248925
H      -2.356103   -4.542791    1.692254
H      -4.339981   -2.983460    1.293660
H      -3.283644   -1.555394    1.701911
H      -3.026581   -3.314875   -0.849512
