20

C      -0.004713    1.530064   -0.014886
C       0.195462    0.013664   -0.055955
C       0.609319   -0.571131    1.303247
C       0.746768   -2.054387    1.281073
C       1.774536   -3.001456    0.704225
C       0.615552   -3.980409    0.400972
C       0.253321   -4.039305    1.840559
C       1.398518   -3.061226    2.196462
N      -0.405955   -3.019244    0.949502
H       0.915998    2.045654    0.281519
H      -0.302671    1.918721   -0.993599
H      -0.783587    1.807687    0.704131
H      -0.728946   -0.477986   -0.380262
H       0.957714   -0.242636   -0.802195
H       1.564372   -0.135840    1.628693
H      -0.133232   -0.293164    2.064281
H       2.739416   -2.818064    0.252780
H       0.396649   -4.643486   -0.427669
H      -0.318024   -4.759471    2.414322
H       2.030241   -2.928039    3.063487
