17

N       0.761750    0.299011   -0.764100
C      -0.048239    0.131403    0.313061
O       0.111036    0.719145    1.369184
C      -1.200315   -0.859401    0.167973
C      -2.191022   -0.816010   -1.037082
N      -1.096129   -1.414515   -1.900069
C      -1.074549   -2.210961   -0.604482
C      -2.620306   -2.276242   -0.660427
O      -3.287111   -2.569256    0.530648
H       1.488345    0.992862   -0.701491
H       0.515975   -0.146243   -1.637540
H      -1.683628   -0.942762    1.137724
H      -2.799203    0.021944   -1.381314
H      -1.507074   -1.979206   -2.650977
H      -0.362725   -3.019678   -0.437579
H      -3.011898   -2.851910   -1.512808
H      -4.227480   -2.403995    0.408533
