18

C       0.016758    1.517780    0.167437
C      -0.087284    0.006976   -0.055830
C       0.701568   -0.497315   -1.274503
C       2.290233   -0.442889   -1.201780
C       2.305660   -1.969085   -1.326334
O       1.530064   -2.491324   -0.237167
C       0.841753   -2.046164   -1.399076
C       0.207914    0.082448   -2.518930
N      -0.194715    0.529898   -3.506591
H       1.054970    1.829858    0.322548
H      -0.377063    2.075554   -0.687682
H      -0.553593    1.812390    1.052843
H       0.294326   -0.538340    0.812194
H      -1.138461   -0.279401   -0.179636
H       2.729405    0.074575   -2.055551
H       2.701122   -0.046895   -0.270752
H       3.067836   -2.613274   -1.746388
H       0.169148   -2.733646   -1.897898
