15

C       0.034355    1.463940   -0.014452
N      -0.001874    0.006288   -0.004410
C      -0.045770   -0.664230    1.208647
O      -0.056516   -0.108992    2.282445
C       0.008354   -0.684161   -1.211831
N      -0.023344   -2.001390   -1.264864
O      -0.000228   -2.314369   -2.622023
C       0.044119   -1.183798   -3.331383
C       0.052584   -0.101140   -2.515271
H       0.946660    1.828191   -0.497505
H      -0.835883    1.872187   -0.538219
H       0.018690    1.789997    1.024358
H      -0.069870   -1.755352    1.077463
H       0.065642   -1.299576   -4.403975
H       0.084808    0.938160   -2.790181
