13

O       0.092878    1.344189    0.178559
C      -0.001033    0.000099    0.060434
C      -1.154386   -0.681029    0.057740
C      -1.149034   -2.142149   -0.004770
N      -2.242526   -2.803157   -0.016469
N       0.122998   -2.778928   -0.065407
C       1.154814   -2.055929   -0.051832
F       2.366442   -2.592024   -0.059910
N       1.215445   -0.684546   -0.041706
H       0.767796    1.682769   -0.423038
H      -2.099773   -0.159322    0.084367
H      -2.026429   -3.799705   -0.075371
H       2.063630   -0.247102    0.288551
