16

N      -0.147675    1.410827    0.084315
C      -0.090314    0.018411    0.046379
C      -1.114881   -0.895871   -0.048957
N      -0.500157   -2.141255    0.047422
C      -1.155706   -3.418195   -0.076771
C      -1.608274   -3.708681   -1.508790
O      -2.500371   -4.465074   -1.778682
C       0.830596   -1.908150    0.181489
N       1.115173   -0.623255    0.188071
H       0.755925    1.814597   -0.124963
H      -0.863783    1.809720   -0.506723
H      -2.183067   -0.796100   -0.140957
H      -0.448257   -4.203610    0.215234
H      -2.020045   -3.492529    0.590760
H      -1.023954   -3.168102   -2.286648
H       1.544232   -2.713987    0.274392
