21

O       0.037303    1.445658   -0.120441
C       0.035057    0.025813   -0.034773
C       0.830222   -0.462342    1.196208
C       0.500443   -1.878870    1.611346
C      -0.469402   -2.541552    0.996325
C      -1.375783   -3.724133    1.269809
C      -2.521318   -2.863063    0.632509
C      -1.425068   -1.959145   -0.022365
C      -1.428828   -0.435120   -0.000167
H       0.953478    1.741218   -0.131570
H       0.497759   -0.404000   -0.939688
H       1.907238   -0.351483    1.000954
H       0.606509    0.220094    2.029383
H       1.027127   -2.292972    2.468300
H      -1.141011   -4.597379    0.650479
H      -1.491391   -4.052396    2.305859
H      -3.218625   -3.371662   -0.036952
H      -3.084088   -2.321159    1.397121
H      -1.209170   -2.328407   -1.034260
H      -1.896392   -0.068075    0.921762
H      -1.967429    0.007865   -0.843865
