20

C       0.094613    1.519128   -0.098615
C       0.094044   -0.010919   -0.043685
C       0.724362   -0.567812    1.224952
C       0.753473   -2.110339    1.333814
C       2.059961   -2.385592    2.076182
C       3.347895   -2.278690    1.280094
C       2.822568   -1.091280    2.039045
O       2.100711   -0.152121    1.287380
H       1.115562    1.904049   -0.035236
H      -0.353326    1.881268   -1.028955
H      -0.476294    1.944333    0.734520
H      -0.933499   -0.391238   -0.108749
H       0.638668   -0.419049   -0.904331
H       0.198793   -0.155634    2.103449
H      -0.114326   -2.487457    1.881951
H       0.741715   -2.571955    0.339406
H       2.044968   -3.009587    2.961530
H       4.222654   -2.789943    1.669324
H       3.281101   -2.239443    0.197626
H       3.356836   -0.681514    2.890899
