16

C       0.030660    1.462140   -0.019106
N       0.035302    0.014264   -0.021688
C       0.011270   -0.836675   -1.134614
C      -0.024035   -0.328788   -2.533757
C       0.028003   -2.097354   -0.611809
N       0.061303   -2.071319    0.774754
C       0.064170   -0.800698    1.066293
O       0.092143   -0.261143    2.301378
H       0.906321    1.859283   -0.542864
H      -0.871349    1.853466   -0.500832
H       0.053976    1.806603    1.014693
H       0.851512    0.285186   -2.781963
H      -0.038255   -1.174819   -3.225060
H      -0.914145    0.279987   -2.739289
H       0.018042   -3.032013   -1.151991
H       0.109281   -1.007425    2.913279
