19

C       0.560350    1.353483   -0.397170
C       0.028390   -0.023165   -0.028909
O      -1.364193   -0.004111    0.205998
C       0.553873   -1.173853   -0.946610
C       1.618695   -1.520469    0.128919
O       2.865738   -0.886837   -0.071765
C       0.773280   -0.715942    1.165096
C       1.428977    0.073746    2.182465
C       1.959540    0.745096    3.027232
H       1.643408    1.324827   -0.531376
H       0.106083    1.692825   -1.337380
H       0.324936    2.074849    0.390444
H      -1.771412    0.594838   -0.428523
H      -0.201976   -1.956512   -1.048119
H       0.937270   -0.898184   -1.933014
H       1.751118   -2.583650    0.363132
H       3.276442   -1.285517   -0.845845
H       0.051927   -1.401174    1.622472
H       2.437937    1.330645    3.772415
