17

O      -0.370847    1.407691   -0.075862
C      -0.054576    0.048046   -0.024303
C       0.860062   -0.319250   -1.181421
O       1.203877    0.501886   -1.995072
C       0.587666   -0.403890    1.292353
O       1.895532    0.173905    1.533185
C       1.507861    0.511812    2.873901
C       0.420899    1.530315    2.874657
C       0.077746    0.067255    2.653494
H       0.124134    1.758447   -0.834465
H      -0.968465   -0.565786   -0.143609
H       1.187072   -1.376672   -1.239734
H       0.672032   -1.501172    1.266119
H       2.221076    0.320579    3.666328
H       0.136802    1.894625    3.857463
H       0.340340    2.239957    2.061711
H      -0.592112   -0.491272    3.292198
