21

O       0.057784    1.375729   -0.355858
C       0.051844    0.019532    0.063990
C      -1.353679   -0.528951   -0.140712
C      -1.479255   -2.000134    0.267778
C      -2.889499   -2.559412    0.095159
C      -3.304207   -3.049263   -1.285897
C      -3.045186   -4.045769   -0.193383
C      -3.902770   -1.941272    0.910421
C      -4.734644   -1.417756    1.604878
H       0.940338    1.730171   -0.214716
H       0.775606   -0.578954   -0.514973
H       0.335210   -0.070376    1.125921
H      -2.057094    0.079008    0.438287
H      -1.626950   -0.407623   -1.195604
H      -0.791488   -2.612072   -0.329801
H      -1.176105   -2.122928    1.315524
H      -4.328777   -2.878491   -1.593200
H      -2.571116   -2.951551   -2.079693
H      -2.135494   -4.635336   -0.235578
H      -3.893971   -4.553657    0.248546
H      -5.473053   -0.955621    2.211642
