16

N      -0.561183    1.134278    0.077688
C      -0.555105   -0.105565    0.298545
O      -1.051777   -0.950179   -0.643255
C      -1.004992   -2.311010   -0.332124
C      -1.848687   -2.867688    0.810673
O      -2.836211   -2.023844    1.331091
C      -3.704656   -1.644016    0.264068
O      -3.454353   -2.507509   -0.833644
C      -2.236600   -3.152539   -0.609097
H      -0.162474    1.630578    0.871987
H      -0.187636   -0.622919    1.192400
H      -0.045480   -2.793058   -0.516087
H      -1.463518   -3.576370    1.533479
H      -4.745230   -1.762680    0.588048
H      -3.500738   -0.606351   -0.024281
H      -2.162209   -4.107162   -1.114192
