15

N       0.076879    1.408146    0.175904
C       0.005740   -0.018347    0.018246
C      -0.584685   -0.797048    1.182385
C      -1.387899   -0.618668   -0.069149
C       1.076887   -0.680226   -0.763576
N       1.184701   -1.956788   -1.014152
O       2.315870   -2.068174   -1.756426
N       2.864696   -0.808360   -1.929739
N       2.127415    0.021643   -1.338444
H       0.946735    1.674635    0.628701
H       0.074881    1.868298   -0.730157
H      -0.164170   -1.774177    1.388627
H      -0.852672   -0.202307    2.047151
H      -2.200789    0.097097   -0.053448
H      -1.518906   -1.473311   -0.722274
