17

O      -0.035514    1.369061    0.361651
C       0.047262    0.010053   -0.035862
C      -1.317723   -0.578338   -0.254804
O      -2.028081   -0.937518    0.978881
C      -1.717901   -1.960693    0.020319
C      -2.931924   -2.294741   -0.858858
O      -4.068255   -2.665881   -0.097816
C      -3.138663   -1.001819   -1.640587
C      -2.259115   -0.058735   -1.302133
H      -0.532592    1.390428    1.187235
H       0.614166    0.001428   -0.972889
H       0.591750   -0.599374    0.699424
H      -1.042486   -2.738759    0.364995
H      -2.721094   -3.144990   -1.517249
H      -4.153464   -1.987078    0.584941
H      -3.973873   -0.887009   -2.321845
H      -2.210373    0.956143   -1.675980
