13

N       0.021847    1.248366    0.009082
C       1.141784    2.017282    0.002301
N       2.357485    1.542373   -0.012262
C       2.418966    0.188233   -0.020304
C       3.446542   -0.724248   -0.035430
C       2.789127   -1.994745   -0.035927
N       1.454176   -1.961271   -0.022596
C       1.178478   -0.630629   -0.012603
N      -0.015473   -0.097022    0.002061
H      -0.889341    1.683038    0.020413
H       0.965186    3.088563    0.009910
H       4.508962   -0.538495   -0.044866
H       3.298695   -2.953159   -0.046188
