20

O      -0.045594    0.632538   -1.238712
C       0.000267    1.370605   -0.277213
N       1.075257    1.539048    0.537995
C       2.350300    0.862938    0.333126
C       3.473365    1.855232    0.059451
C       4.131562    2.706880    1.199965
C       4.885675    1.427637    1.667375
C       4.975162    1.425228    0.111588
C       5.313663    2.941541    0.215765
H      -0.856435    1.996828    0.043623
H       0.994774    2.198217    1.295938
H       2.565142    0.220329    1.192999
H       2.204924    0.213128   -0.533661
H       3.213449    2.444472   -0.827450
H       3.649057    3.456902    1.830623
H       5.825087    1.594592    2.201165
H       4.308585    0.636956    2.148863
H       5.465529    0.683570   -0.520775
H       5.106981    3.553761   -0.666250
H       6.277198    3.193667    0.665985
