19

C       0.109220    1.306198    0.158525
O      -0.229914   -0.046885   -0.129830
C       0.467759   -0.574270   -1.192192
C       1.887909   -1.109712   -1.087909
C       0.782743   -2.032400   -1.533948
O       0.473426   -3.243477   -0.947961
C       0.432042   -1.781256   -2.997413
C       0.115750   -0.279881   -2.656080
O      -1.223182    0.115489   -2.840648
H       1.175554    1.402618    0.402587
H      -0.125977    1.963180   -0.688023
H      -0.487917    1.605222    1.022548
H       2.690197   -0.790447   -1.752973
H       2.195108   -1.259262   -0.054249
H       0.980998   -3.340466   -0.136602
H       1.215842   -1.985654   -3.734383
H      -0.491521   -2.286519   -3.288481
H       0.741177    0.455499   -3.174808
H      -1.718807   -0.179481   -2.067421
