13

N      -0.081251    1.324959    0.292976
C      -0.001071    0.137137   -0.111857
O       1.052725   -0.370839   -0.816652
C       1.277782   -1.780623   -0.719429
C       0.026616   -2.551128   -1.113954
O       0.033071   -3.664072   -1.568905
C      -1.233346   -1.737670   -0.857957
O      -1.001057   -0.740864    0.137898
H       0.793654    1.812581    0.109909
H       2.100766   -2.017917   -1.394733
H       1.570013   -2.059573    0.302613
H      -1.573116   -1.281340   -1.798293
H      -2.028821   -2.381047   -0.479407
