17

C       0.039728    1.518929    0.000522
C      -0.052191    0.032154    0.004842
C      -1.125174   -0.772085    0.091685
C      -0.658704   -2.175856    0.052575
C      -1.292963   -3.330598    0.755940
N      -1.324875   -3.267188   -0.702295
C       0.855010   -2.096783   -0.067003
O       1.659507   -2.996304   -0.114892
N       1.124422   -0.737928   -0.082421
H       0.638456    1.883842    0.843945
H       0.516800    1.884024   -0.917320
H      -0.955014    1.963325    0.069334
H      -2.152742   -0.451778    0.181334
H      -0.636611   -4.097876    1.157357
H      -2.198850   -3.135404    1.324135
H      -2.231446   -2.926569   -1.017621
H       2.056419   -0.368859   -0.173727
