17

O       0.020004   -0.089494   -0.010553
C      -0.002256    1.126694    0.002310
C      -1.318340    1.910159    0.007048
N      -1.248345    3.340186   -0.288619
C      -0.108154    3.969871    0.384436
C       1.230745    3.326437   -0.032303
N       1.137708    1.878613    0.076720
C      -0.077456    5.408432    0.135610
C      -0.018344    6.585700   -0.095064
H      -1.994024    1.421691   -0.698335
H      -1.759153    1.769540    1.003685
H      -1.165436    3.492094   -1.289403
H      -0.245737    3.796433    1.461478
H       1.466596    3.638508   -1.060400
H       2.038725    3.689351    0.612361
H       1.990404    1.337483    0.046686
H       0.017104    7.630057   -0.285700
