16

C      -0.066032    1.581057    0.019817
C       0.042472    0.077316    0.112312
N       1.206095   -0.724749   -0.300927
C       2.452536    0.030992    0.092370
C       2.075457    0.033214    1.592551
C       0.775579   -0.665225    1.176525
C       0.202698   -1.778031    1.872537
N      -0.260763   -2.656426    2.466730
H       0.779598    2.108494    0.464389
H      -0.146067    1.888254   -1.028234
H      -0.972811    1.912478    0.534796
H      -0.863499   -0.435295   -0.205288
H       3.324708   -0.582134   -0.136407
H       2.558455    0.998127   -0.405476
H       2.718496   -0.613056    2.190056
H       1.963078    0.992256    2.104455
