16

O       0.039126   -0.078778   -0.149419
C      -0.055697    1.117785   -0.002936
C      -1.402239    1.826055    0.097963
C      -1.523954    2.755431    1.279946
C      -0.775502    3.849085    1.391518
C       0.240903    4.227158    0.342884
C       1.399615    3.244435    0.213828
O       2.555723    3.598667    0.225780
N       1.110314    1.885941    0.058278
H      -1.548042    2.385368   -0.838462
H      -2.150191    1.033940    0.119628
H      -2.236076    2.488631    2.053949
H      -0.862687    4.495461    2.258684
H      -0.241857    4.294211   -0.643739
H       0.697845    5.195676    0.544191
H       1.948798    1.319886   -0.017632
