18

C       0.295053    0.896224    0.484602
O      -0.402015   -0.058031   -0.302759
C       0.358524   -0.581184   -1.331961
C       1.470349   -1.618324   -1.096266
C       0.994854   -2.509057    0.035423
O       1.402939   -2.820069    1.117491
N      -0.185472   -2.858256   -0.653866
C       0.140992   -1.980497   -1.790523
C      -0.144593   -2.421959   -3.193051
H       1.172513    0.446750    0.966671
H       0.619967    1.754531   -0.121142
H      -0.400907    1.243700    1.250405
H       0.612892    0.136832   -2.117207
H       2.470532   -1.515393   -1.494466
H      -1.085751   -2.811309   -0.187418
H      -1.223404   -2.433120   -3.385919
H       0.315067   -1.741129   -3.915273
H       0.241230   -3.430794   -3.365795
