19

C       0.132965    1.399779    0.385742
O       1.400464    1.484243   -0.317457
C       1.225822    0.154368   -0.877632
C       2.409778   -0.804333   -0.657722
O       2.011494   -2.115779   -0.292475
C       0.879087   -2.638573   -0.971371
C      -0.391928   -2.517286   -0.117464
C      -0.691610   -1.116709    0.349468
C       0.009698   -0.053542   -0.007246
H       0.235165    1.617577    1.456144
H      -0.614429    2.080386   -0.046362
H       0.990421    0.242293   -1.948426
H       3.046405   -0.833756   -1.555512
H       3.008935   -0.421309    0.173584
H       0.739943   -2.156007   -1.948585
H       1.081052   -3.698362   -1.165398
H      -1.243070   -2.936781   -0.674171
H      -0.273509   -3.156737    0.768261
H      -1.505970   -1.004980    1.063275
