20

C      -0.108455    1.465750    0.268031
C      -0.095118   -0.063018    0.209540
C      -1.482524   -0.695360    0.008951
C      -1.398950   -2.215683   -0.175734
N      -2.369304   -0.363169    1.120166
C      -3.577178    0.221927    0.981707
O      -4.107940    0.582535   -0.055336
C      -4.298166    0.424191    2.319084
O      -3.845194    0.084841    3.382197
H       0.902319    1.860707    0.405924
H      -0.512994    1.892602   -0.655762
H      -0.724807    1.826349    1.096954
H       0.547229   -0.398233   -0.613307
H       0.351582   -0.471297    1.127246
H      -1.957218   -0.252089   -0.872168
H      -2.392450   -2.642802   -0.335975
H      -0.774114   -2.462996   -1.039316
H      -0.958250   -2.695611    0.705780
H      -2.107581   -0.611809    2.065540
H      -5.284351    0.915046    2.201265
