18

C      -0.065799    1.546024   -0.050937
C      -0.042870    0.017458   -0.083007
O       0.942340   -0.508776    0.792749
C      -1.441221   -0.572435    0.211873
C      -1.494467   -2.025584    0.127569
C      -1.536729   -3.224911    0.038806
C      -1.564597   -4.678736   -0.042897
O      -2.420344   -5.086146   -1.105791
H       0.936583    1.938932   -0.238740
H      -0.746708    1.952456   -0.805889
H      -0.397625    1.910552    0.929636
H       0.266850   -0.321586   -1.077705
H       0.712277   -0.245395    1.691018
H      -1.757252   -0.240372    1.212360
H      -2.165294   -0.138269   -0.490063
H      -0.537530   -5.048700   -0.195990
H      -1.908379   -5.088442    0.921324
H      -2.399983   -6.048168   -1.134979
