18

C       0.021128    1.458911    0.039712
C       0.039688   -0.048294   -0.025487
C      -0.047700   -0.742405   -1.345569
C      -0.573705   -1.952281   -1.162267
C      -0.738067   -2.160308    0.315523
C       0.689694   -2.290417    0.990737
O       1.785962   -2.844652    0.313102
C       0.663209   -0.791145    1.132134
N      -0.843114   -0.761425    0.928481
H       0.927989    1.878430   -0.408777
H      -0.844399    1.855410   -0.500699
H      -0.040906    1.802799    1.075585
H       0.291701   -0.300389   -2.273332
H      -0.713696   -2.725427   -1.906310
H      -1.510134   -2.854267    0.646586
H       0.560364   -2.736258    1.984833
H       1.789897   -3.795781    0.459538
H       1.145219   -0.243057    1.937062
