19

O      -0.030935    1.458133    0.037839
C      -0.039965    0.057372   -0.115196
C      -1.453218   -0.511788   -0.054106
O      -2.034400   -0.003577    1.130250
C      -3.402402   -0.376541    1.285891
C      -4.200320    0.053847    0.050135
O      -4.263298    1.463913   -0.051041
C      -3.514432   -0.543813   -1.180527
O      -2.157716   -0.106908   -1.202870
H      -0.538310    1.641288    0.837404
H       0.388977   -0.170353   -1.094667
H       0.563624   -0.447018    0.655406
H      -1.437556   -1.618115   -0.008036
H      -3.484119   -1.464626    1.440898
H      -3.764052    0.138610    2.178250
H      -5.231507   -0.307585    0.128928
H      -3.366975    1.758724   -0.256886
H      -3.565842   -1.644715   -1.165556
H      -3.975630   -0.177200   -2.100084
