18

C      -0.001555    1.530807   -0.025598
C       0.153073    0.009072   -0.067038
C       0.618080   -0.559318    1.278021
N       0.741034   -2.006538    1.266277
C       1.872837   -2.749555    1.186417
C       1.483760   -4.072932    1.145421
C       0.077025   -4.021521    1.203762
N      -0.370398   -2.769435    1.274738
H       0.946421    2.024023    0.217769
H      -0.337539    1.917348   -0.991913
H      -0.736328    1.835585    0.727693
H      -0.797976   -0.466219   -0.327583
H       0.873228   -0.278596   -0.842361
H       1.594426   -0.149168    1.555288
H      -0.092577   -0.292350    2.066537
H       2.846899   -2.286025    1.171283
H       2.121538   -4.939983    1.090864
H      -0.627445   -4.840568    1.204029
