14

O       0.083198   -0.018762   -0.457076
C      -0.047671    1.140763   -0.130954
C       1.135270    1.970450    0.182186
N       2.064577    2.614007    0.425809
C      -1.285645    1.838161   -0.007326
C      -2.332547    2.437764    0.100023
C      -3.562677    3.138298    0.224415
C      -3.709529    4.214300    1.302174
C      -3.619434    4.626355   -0.126814
H      -4.451129    2.556869    0.000754
H      -4.670451    4.257665    1.801159
H      -2.852480    4.384822    1.941854
H      -2.700152    5.081465   -0.474086
H      -4.516895    4.959960   -0.634267
