15

C       0.012134    1.494211   -0.024919
C       1.290671    0.733469    0.005360
C       1.852786    0.336722    1.352210
C       1.387512   -1.145452    1.617111
O       1.227279   -0.885499    3.044343
C       0.694657    0.313078    2.388952
C      -0.027039   -0.566383    1.308594
N      -0.018073    0.019895   -0.033399
H      -0.312797    2.021345    0.868072
H      -0.308957    1.948957   -0.957417
H       1.913224    0.665866   -0.881935
H       2.846834    0.649652    1.665313
H       1.841572   -2.087148    1.308890
H       0.316826    1.107556    3.031587
H      -0.919419   -1.128896    1.576192
