25

C       0.444949    1.592159   -0.399235
C       0.008889    0.162973   -0.094349
C       0.442639   -0.951958   -1.099382
C       1.090662   -1.752431    0.058170
C       0.772489   -3.226310    0.185090
C       2.564856   -1.324655    0.352946
C       2.076173   -0.500756    1.579627
C       2.718994    0.838635    1.919286
C       0.607967   -0.664312    1.096519
H       1.505127    1.653370   -0.661479
H      -0.120080    1.981479   -1.254275
H       0.267787    2.262990    0.448214
H      -1.080790    0.163033    0.014970
H      -0.400893   -1.464648   -1.572149
H       1.131975   -0.635283   -1.889744
H       1.231085   -3.799339   -0.630953
H       1.149227   -3.639414    1.128166
H      -0.308036   -3.406926    0.149351
H       3.262610   -2.137775    0.574288
H       3.001083   -0.712833   -0.443792
H       2.163035   -1.142677    2.465578
H       2.778969    1.506903    1.057539
H       2.160435    1.358486    2.706176
H       3.740423    0.687172    2.287583
H      -0.118876   -0.885403    1.882899
