18

O      -0.064801    1.411054    0.133938
C      -0.043090    0.003920   -0.034501
C      -1.437321   -0.562236   -0.047024
C      -2.604399   -0.319696   -1.073596
C      -3.254644   -1.206133    0.047579
C      -1.932166   -2.053277    0.003430
C      -2.497795   -0.307738    1.007353
N      -2.545729    0.377466    2.063814
O      -3.819180    0.297007    2.683585
H      -0.545902    1.589604    0.951641
H       0.465238   -0.189483   -0.985216
H       0.541314   -0.492714    0.757243
H      -2.966565    0.703757   -1.176126
H      -2.480780   -0.815075   -2.040722
H      -4.278068   -1.564656    0.109359
H      -1.780443   -2.627276   -0.914780
H      -1.680471   -2.630295    0.895276
H      -3.694501    0.848015    3.463519
