20

C       0.138722    1.503068   -0.055530
C       0.099178   -0.012206   -0.010552
C       1.222993   -0.787208   -0.661958
C       1.139780   -0.712612    0.841427
C      -1.253813   -0.670279   -0.051511
N      -2.436467    0.108995    0.310477
C      -2.329916   -0.413638   -1.072472
C      -2.233267    0.518081   -2.162148
C      -2.186740    1.243702   -3.120260
H       1.173002    1.853651    0.017181
H      -0.286834    1.889412   -0.984590
H      -0.431164    1.929959    0.774167
H       0.984759   -1.732288   -1.139560
H       1.999581   -0.222019   -1.165779
H       1.858152   -0.093078    1.367280
H       0.849704   -1.608118    1.382079
H      -1.228462   -1.709839    0.278623
H      -3.101688   -0.446150    0.841359
H      -2.938636   -1.284944   -1.310991
H      -2.135895    1.899100   -3.954112
