13

N       0.119744    1.250959    0.374108
C      -0.092550   -0.031638   -0.019226
N      -1.264631   -0.562280    0.090216
C      -1.454910   -1.897655   -0.221766
O      -2.278944   -2.315181   -0.991187
N      -0.679869   -2.815328    0.553746
C       0.587046   -2.810232    0.401266
C       1.354237   -1.837007   -0.396561
N       1.071757   -0.599180   -0.574472
H       0.934444    1.721801    0.019699
H      -0.688948    1.801417    0.611012
H       1.175320   -3.576555    0.913828
H       2.296213   -2.188605   -0.824995
