16

O       0.427354    1.144943    0.513426
C       0.039912   -0.134511    0.121138
C      -1.475132   -0.481457    0.009293
C      -2.352421    0.629677   -0.585883
O      -2.064827    0.192176   -1.942151
C      -1.277234   -0.903032   -1.472732
C       0.249870   -0.567157   -1.394324
C       0.716721    0.492228   -2.263997
N       1.089117    1.392473   -2.887649
H       0.349670    1.751893   -0.233280
H       0.553376   -0.834254    0.785292
H      -1.901882   -1.110170    0.788295
H      -3.420787    0.539191   -0.362848
H      -2.031707    1.660252   -0.398297
H      -1.552387   -1.859488   -1.921458
H       0.894167   -1.444785   -1.489738
