16

O      -0.060868    0.009517    0.078389
C      -0.022831    1.206492    0.032638
N      -1.010697    2.174174   -0.049427
C      -0.105216    3.316010    0.061290
C       0.154104    3.891808    1.477701
C       1.676348    4.177207    1.437884
C       1.647436    2.625966    1.440310
O       0.438218    2.697371    2.259319
C       1.085030    2.294204    0.042829
H      -1.980290    2.094629    0.224715
H      -0.201297    4.064179   -0.727381
H      -0.579129    4.559481    1.929865
H       2.101079    4.700495    0.576545
H       2.043810    4.587667    2.378780
H       2.432584    1.999852    1.860091
H       1.803125    2.299550   -0.775527
