21

C      -0.125489    1.550281   -0.006953
C      -0.086344    0.020949   -0.049727
C       0.801302   -0.511557   -1.184426
O       2.125998   -0.022396   -1.111840
C       0.779573   -2.064540   -1.257052
O       1.410692   -2.564480   -2.424708
C       0.597071   -2.541577   -3.576914
C       1.477760   -2.631161   -0.099980
C       2.072151   -3.034228    0.864147
H       0.885795    1.954785    0.081653
H      -0.568606    1.960574   -0.921356
H      -0.718166    1.906421    0.840805
H       0.287678   -0.372442    0.903970
H      -1.101403   -0.379069   -0.173904
H       0.411033   -0.138686   -2.139349
H       2.567126   -0.491774   -0.391861
H      -0.273686   -2.393077   -1.233997
H      -0.337207   -3.104462   -3.424121
H       0.339387   -1.521949   -3.897026
H       1.170158   -3.018661   -4.374987
H       2.582778   -3.425060    1.709909
