20

C      -0.328030    1.463492   -0.087380
C       0.038133   -0.021209    0.039834
C       0.940983   -0.275843    1.253048
O      -1.157740   -0.803645    0.150352
C       0.723017   -0.513813   -1.253809
C       0.587562   -1.949984   -1.643315
N      -0.132234   -0.913870   -2.395725
C       1.933275    0.189738   -1.605776
C       2.953621    0.766511   -1.875249
H       0.564612    2.077119   -0.229129
H      -0.994374    1.620643   -0.940132
H      -0.836502    1.808756    0.820532
H       0.462089    0.088943    2.168848
H       1.128871   -1.346909    1.364452
H       1.899572    0.237932    1.143579
H      -1.680679   -0.440344    0.871292
H       1.403462   -2.423890   -2.180019
H       0.020287   -2.590431   -0.976376
H      -1.093759   -0.898026   -2.058188
H       3.850468    1.274967   -2.129701
