18

C      -0.137163    1.581237    0.051557
N       0.002097    0.137537    0.037450
C      -1.191431   -0.689099    0.514264
C      -0.096539   -1.649460    1.019707
O       0.624202   -2.349005    2.142024
C       1.694365   -1.794875    1.174028
C       0.871756   -2.385251    0.027664
O       0.785390   -3.764207   -0.079190
C       0.819987   -0.485918    1.123928
H       0.812510    2.038336   -0.243034
H      -0.898116    1.884869   -0.674439
H      -0.424498    1.982624    1.040465
H      -1.755112   -0.187213    1.312648
H      -1.860500   -1.033138   -0.279359
H       2.719266   -1.981813    1.506990
H       0.985129   -1.944867   -0.960962
H       0.680850   -4.081269    0.829975
H       0.791865    0.054508    2.076186
