18

O      -0.192038    1.421295   -0.164316
C      -0.092349    0.032210   -0.068999
C      -0.434129   -0.657661    1.218944
C      -1.403841   -0.717509    0.062958
C      -2.746033   -0.013429    0.012535
C      -3.361858   -0.630825   -1.252518
O      -2.748626   -1.927784   -1.402185
C      -1.572183   -1.978985   -0.712582
N      -0.755530   -2.944280   -0.734441
H       0.513434    1.808834    0.363870
H       0.659025   -0.431114   -0.706166
H       0.086037   -1.577953    1.460861
H      -0.716197   -0.027217    2.056409
H      -3.349196   -0.256328    0.893729
H      -2.647467    1.070879   -0.054211
H      -4.441695   -0.781165   -1.191883
H      -3.137439   -0.035658   -2.145526
H      -1.077835   -3.679099   -1.364815
