21

C       0.295523    1.656490   -0.030849
C      -0.227031    0.226819   -0.148751
N       0.485796   -0.478869   -1.214173
C       1.714680   -1.188406   -0.864461
C       0.486928   -1.939169   -1.248080
C      -0.253906   -2.820822   -0.261623
O       0.199564   -2.632202    1.062140
C      -0.479087   -3.445359    1.990858
H       1.351683    1.662365    0.258652
H       0.205604    2.180499   -0.986724
H      -0.264945    2.212214    0.727556
H      -0.150972   -0.286411    0.820003
H      -1.289327    0.245430   -0.424059
H       2.542714   -1.086598   -1.561615
H       1.993852   -1.234744    0.185464
H       0.418622   -2.337072   -2.260567
H      -1.339761   -2.626551   -0.321384
H      -0.105080   -3.871933   -0.564170
H      -0.346719   -4.515122    1.764907
H      -0.057729   -3.237018    2.976977
H      -1.559001   -3.230505    2.011069
