13

C       0.047275    1.498183    0.038389
C      -0.071716    0.016515    0.051430
C      -1.133292   -0.842048    0.009511
N      -2.510258   -0.569934    0.002044
C      -0.519495   -2.125604    0.074722
N       0.786496   -2.049663    0.143549
O       1.077816   -0.697497    0.140304
H       0.890656    1.811426   -0.584063
H      -0.861681    1.952787   -0.367435
H       0.204796    1.907786    1.043181
H      -2.715779    0.394439   -0.226870
H      -3.022005   -1.171332   -0.631916
H      -0.995646   -3.096585    0.070018
