18

N       0.084814    1.039106   -0.653368
C       0.032708   -0.255608   -0.216393
O       1.031500   -0.942330   -0.139922
C      -1.360313   -0.742738    0.222538
C      -2.512664   -0.423910   -0.780497
C      -2.687810   -1.707257   -1.566165
O      -1.449424   -2.230920   -2.060116
C      -2.007926   -2.802284   -0.866727
C      -1.374334   -2.280600    0.404967
H       0.994121    1.429445   -0.838815
H      -0.698708    1.663823   -0.587782
H      -1.552558   -0.240202    1.177431
H      -3.443414   -0.195938   -0.247683
H      -2.292520    0.424183   -1.435214
H      -3.552199   -1.851328   -2.209853
H      -2.320422   -3.839949   -0.951093
H      -0.359022   -2.651839    0.557504
H      -1.990511   -2.574212    1.262285
