11

N      -0.041383    1.354103    0.010252
C       1.287467    1.736294   -0.000811
N       2.141802    0.721014   -0.014720
C       1.305756   -0.341719   -0.012234
C      -0.017849   -0.020406    0.002569
N      -0.808818   -1.143487    0.004240
C       0.087464   -2.091701   -0.009748
O       1.405114   -1.700694   -0.020615
H      -0.837075    1.968970    0.021495
H       1.569798    2.777842    0.002044
H      -0.085752   -3.155590   -0.013824
