18

C      -0.044840    1.395336    0.046029
N      -0.044755   -0.047303    0.062601
C      -1.229527   -0.845890   -0.159463
C      -0.633120   -2.248608   -0.119057
C      -1.115082   -3.342603    0.782636
C      -1.252223   -3.458355   -0.729004
O       0.771814   -2.096040   -0.256765
C       1.107249   -0.776912   -0.101089
O       2.240204   -0.377307   -0.112422
H       0.990631    1.727401    0.134157
H      -0.468197    1.788054   -0.888975
H      -0.626076    1.796716    0.883856
H      -1.982366   -0.691062    0.622561
H      -1.696461   -0.615694   -1.130699
H      -0.357521   -3.952731    1.260896
H      -2.007693   -3.167088    1.374226
H      -2.237705   -3.361620   -1.173171
H      -0.586971   -4.145378   -1.239269
