17

C       0.182029    1.544290    0.030849
C       0.015854    0.023837   -0.044543
C      -1.456915   -0.436577    0.005534
N      -2.186777   -0.021736   -1.188113
C      -3.626954   -0.253088   -1.119688
C      -1.509989   -1.906267    0.123642
N      -1.544003   -3.055329    0.239450
H       1.242710    1.806155    0.080130
H      -0.229757    2.055224   -0.845819
H      -0.303741    1.955557    0.922572
H       0.464016   -0.367076   -0.963561
H       0.542064   -0.442833    0.793986
H      -1.909882   -0.040615    0.936821
H      -2.008003    0.963645   -1.341474
H      -4.114028    0.208806   -0.242967
H      -4.095828    0.143301   -2.023953
H      -3.823243   -1.328978   -1.084010
