17

C      -0.220705    1.486920   -0.022037
C       0.073188   -0.009628    0.048927
C       0.831370   -0.614321   -1.169190
C       1.882497   -1.511191   -0.529532
C       1.944208   -1.379287    0.797839
C       0.939544   -0.394936    1.263728
O       0.805404    0.043221    2.382297
C      -0.013075   -1.317923   -2.128269
C      -0.710040   -1.906245   -2.911085
H       0.696274    2.061634   -0.191730
H      -0.921679    1.715203   -0.829946
H      -0.652854    1.821122    0.924515
H      -0.869705   -0.557094    0.167399
H       1.352461    0.194120   -1.704229
H       2.503283   -2.158561   -1.138432
H       2.630528   -1.876416    1.471229
H      -1.327053   -2.421859   -3.604827
