21

C       0.260027    1.570648   -0.075768
C       0.050397    0.068030    0.039286
O       0.625869   -0.561764   -1.106844
C       1.155671   -1.844560   -0.772320
C       2.383718   -2.098374   -1.634055
C       1.415908   -1.792891    0.730923
C       1.685268   -3.044418    1.517025
O       2.162858   -0.615415    1.091800
C       0.733788   -0.594456    1.219762
H       1.328432    1.797610   -0.043673
H      -0.149384    1.937385   -1.020702
H      -0.241985    2.094087    0.744205
H      -1.028631   -0.160493    0.099189
H       0.397439   -2.626401   -0.956253
H       3.163759   -1.373817   -1.387324
H       2.769829   -3.110075   -1.473524
H       2.128688   -1.993574   -2.691725
H       2.611751   -3.523200    1.182007
H       1.789765   -2.813356    2.579690
H       0.870623   -3.765490    1.392403
H       0.339604   -0.488958    2.227769
