18

C      -0.010760    1.547757    0.022833
C       0.104824    0.046182   -0.022610
N      -0.590058   -0.791083    0.978300
C       0.887834   -0.766017    0.953312
C       1.541182   -1.950683    0.240470
C       1.124980   -1.821871   -1.227039
N      -0.318363   -1.987724   -1.480262
C       0.248569   -0.627793   -1.380763
H       0.769853    2.025221   -0.580530
H      -0.980240    1.883478   -0.363984
H       0.088578    1.919024    1.048198
H      -0.912501   -0.189292    1.734675
H       1.409294   -0.303052    1.787028
H       2.631182   -1.871513    0.320159
H       1.236661   -2.909494    0.670738
H       1.825733   -2.124830   -1.999656
H      -0.454324   -2.212497   -2.463953
H       0.275184    0.001664   -2.264637
