14

O       0.033900    1.340283    0.216338
C       0.057015    0.005842    0.006407
C       0.095712   -0.752361   -1.149294
C       0.103383   -2.103301   -0.722114
O       0.138484   -3.163007   -1.562047
C       0.069380   -2.143299    0.665737
N       0.041255   -0.804018    1.088922
C       0.063070   -3.251260    1.516899
C       0.058982   -4.237088    2.217748
H       0.049395    1.785055   -0.636715
H       0.115962   -0.393452   -2.165348
H       0.135903   -3.966150   -1.026099
H       0.013715   -0.492663    2.043740
H       0.055283   -5.097965    2.838325
