20

N      -0.019778   -1.189118    0.094433
C      -0.008466   -0.034009    0.098195
C      -0.000342    1.427302    0.076654
C       1.417496    2.013284    0.024417
C       1.409196    3.536785   -0.149760
C       2.841422    4.085863   -0.059033
C       3.527783    3.577506    1.216343
C       3.403646    2.056073    1.307384
O       2.046007    1.640351    1.237063
H      -0.574838    1.770014   -0.790463
H      -0.503495    1.799278    0.975775
H       1.959048    1.559687   -0.824226
H       0.950979    3.800180   -1.110006
H       0.789309    3.976702    0.642330
H       3.411634    3.752223   -0.936655
H       2.832800    5.180089   -0.088531
H       4.585073    3.864414    1.233319
H       3.053386    4.024408    2.098535
H       3.981272    1.580271    0.496593
H       3.784771    1.675485    2.258664
