22

C       1.313980    1.156912   -0.723124
C       0.835375   -0.297811   -0.735434
C      -0.496625   -0.540427    0.003069
C      -1.690499    0.161864   -0.661138
C      -0.763032   -2.030016    0.082141
O       0.078133   -2.814526    0.936065
C      -1.320234   -2.744053    1.244705
C      -1.712474   -2.107129    2.553599
H       2.289502    1.249266   -1.210694
H       0.622312    1.823331   -1.247805
H       1.420645    1.528743    0.302342
H       0.736906   -0.645069   -1.773422
H       1.596919   -0.933293   -0.269453
H      -0.384392   -0.154750    1.023266
H      -2.617810   -0.029026   -0.111411
H      -1.546725    1.244664   -0.702971
H      -1.833111   -0.194384   -1.688454
H      -0.932501   -2.491395   -0.896144
H      -1.853836   -3.673098    1.028827
H      -1.170860   -1.176992    2.735149
H      -2.787481   -1.896127    2.568226
H      -1.496159   -2.789947    3.382070
