18

C      -0.194611    1.433653   -0.216413
C       0.074773   -0.048462   -0.019694
O       0.670787   -0.557828   -1.195343
C       0.972777   -1.933689   -1.117124
C       1.658963   -2.357420   -2.386570
C       1.455982   -3.734509   -2.900859
N       0.879888   -2.582387   -3.611885
H       0.738075    1.969252   -0.414388
H      -0.866060    1.591760   -1.065026
H      -0.657910    1.859640    0.678532
H       0.740851   -0.210526    0.845332
H      -0.864153   -0.587517    0.195725
H       1.624483   -2.135620   -0.248591
H       0.050457   -2.526301   -0.972594
H       2.613370   -1.866797   -2.564365
H       2.260023   -4.243057   -3.424778
H       0.794167   -4.394158   -2.344185
H      -0.112994   -2.502291   -3.403507
