10

O      -0.057161   -0.050485    0.004853
C       0.010246    1.150434    0.008850
N      -1.114739    1.968794    0.027902
N      -1.196761    3.331730    0.035881
N      -0.135428    3.994841    0.025147
N       1.053351    3.323386    0.006809
C       1.295372    1.953345   -0.002316
O       2.404076    1.487276   -0.020268
H      -2.018323    1.512111    0.037618
H       1.860002    3.935244   -0.001032
