20

C      -0.036403    1.528506   -0.056654
C       0.012551    0.021656   -0.039479
C       0.651364   -0.962074   -1.036460
N       0.056404   -1.928375   -0.005873
C       0.611973   -0.929352    1.040812
C       0.007585   -1.027279    2.434662
C      -1.492760   -1.057410    2.368909
C      -2.062621   -1.040124    1.166593
C      -1.181933   -0.983990   -0.039345
H       0.969708    1.957846    0.007801
H      -0.500670    1.898205   -0.977675
H      -0.620521    1.907643    0.789017
H       0.199405   -1.053722   -2.029037
H       1.743503   -1.005741   -1.090904
H       1.706499   -0.961522    1.082267
H       0.389118   -1.930605    2.930588
H       0.357123   -0.183342    3.046874
H      -2.066367   -1.101600    3.289729
H      -3.138947   -1.065280    1.030436
H      -1.732788   -1.076753   -0.979419
