19

C       0.208659    1.434176    0.049582
C       1.298256    0.446792   -0.262225
C      -0.115099   -0.040298   -0.016298
C      -0.487184   -0.773097    1.240046
C      -0.793351   -2.264637    1.260525
O      -0.348616   -3.047047    0.182283
C       1.064407   -2.931176    0.106460
O       1.529947   -2.293069    1.285993
C       0.418908   -1.769152    1.965219
H       0.216433    1.900804    1.029420
H      -0.157684    2.074751   -0.745012
H       1.681882    0.407776   -1.276136
H       2.033770    0.235978    0.504254
H      -0.660614   -0.362401   -0.899145
H      -1.120315   -0.217468    1.930873
H      -1.683717   -2.666984    1.727827
H       1.509996   -3.932016    0.033828
H       1.338940   -2.330408   -0.771002
H       0.563288   -1.739399    3.038208
