19

C      -0.095864    1.511491    0.008658
C       0.089512    0.021078    0.028242
C       1.060047   -0.773584   -0.888758
C       0.707058   -1.905151    0.121876
C       0.678896   -0.794250    1.213287
C      -0.809219   -2.044854   -0.142932
O      -1.177723   -0.642898   -0.202401
C      -1.163407   -2.752483   -1.367543
C      -1.450864   -3.360984   -2.363414
H       0.857023    2.018470    0.184464
H      -0.489963    1.834965   -0.959589
H      -0.803598    1.820296    0.784147
H       0.771258   -0.903700   -1.933463
H       2.097350   -0.445711   -0.801619
H       1.278798   -2.826496    0.214740
H       1.678990   -0.470088    1.506732
H       0.039852   -0.936819    2.088792
H      -1.324265   -2.512570    0.706409
H      -1.709676   -3.891613   -3.246127
