17

C      -0.145807    1.576171   -0.024108
C      -0.004396    0.066278   -0.008046
C       1.267885   -0.597908   -0.618704
N       2.043654   -0.042995    0.553523
C       0.780328   -0.624033    1.153430
C       0.931268   -1.878652    0.240589
O      -0.227787   -2.632230    0.013925
C       2.074071   -2.760513    0.523698
N       2.943490   -3.501472    0.705409
H       0.789822    2.067856    0.245072
H      -0.448849    1.918607   -1.019479
H      -0.924045    1.891723    0.679047
H      -0.932189   -0.441128   -0.269637
H       1.650130   -0.561738   -1.639951
H       2.852722   -0.633612    0.768411
H       0.583549   -0.614641    2.225788
H      -0.043453   -3.300086   -0.656441
