21

C      -0.177361    1.599141    0.182172
C      -0.079147    0.080597    0.112559
O       0.447892   -0.235611   -1.183944
C       0.212831   -1.541454   -1.639546
O       0.892046   -2.532687   -0.923103
C       0.278947   -2.886640    0.313290
C       0.697404   -1.998716    1.494461
C       0.863329   -0.486326    1.203046
O       2.203862   -0.165039    0.873452
H       0.823827    2.035922    0.146825
H      -0.761021    1.982381   -0.658340
H      -0.659283    1.909077    1.114202
H      -1.081606   -0.364937    0.214065
H      -0.872160   -1.750430   -1.631833
H       0.597465   -1.571969   -2.661643
H      -0.814269   -2.866609    0.187825
H       0.561266   -3.925504    0.510590
H      -0.044399   -2.141966    2.290846
H       1.659567   -2.333240    1.893625
H       0.656876    0.051480    2.135866
H       2.302833   -0.381047   -0.063073
