15

C      -0.013063    1.376860   -0.270789
C       0.343585   -0.075613   -0.086628
O       1.709581   -0.417551    0.110611
C       0.798071   -0.666059    1.201190
C       0.978896    0.109555    2.479704
C       0.505718   -2.131035    1.354058
O       0.183935   -2.656582    2.388547
H       0.538008    2.024075    0.412889
H       0.222014    1.686563   -1.294336
H      -1.086229    1.526488   -0.113492
H      -0.174256   -0.750543   -0.773469
H       1.150662    1.169225    2.291084
H       0.094412   -0.007305    3.111530
H       1.833394   -0.285333    3.037044
H       0.620880   -2.701918    0.405382
