17

C      -0.118457    1.315644   -0.157521
O      -0.034556   -0.118335   -0.208370
C       0.467677   -0.619854   -1.333431
O       0.846922    0.022296   -2.282046
C       0.496380   -2.159061   -1.303690
O      -0.083855   -2.788216   -0.451933
C       1.265335   -2.852293   -2.418364
C       2.772612   -2.553657   -2.315636
O       1.024237   -4.234213   -2.364625
H       0.873555    1.758894   -0.273402
H      -0.767859    1.686262   -0.954159
H      -0.534930    1.550671    0.820839
H       0.897057   -2.443400   -3.371038
H       2.975936   -1.490551   -2.459307
H       3.161034   -2.875353   -1.344415
H       3.288165   -3.122055   -3.093084
H       0.516905   -4.389771   -1.553654
