14

C       0.877164    0.615418    0.143096
O      -0.516985    0.893073   -0.007338
C      -1.326569   -0.146984    0.190238
C      -1.156749   -1.465774    0.513490
N      -2.402918   -2.044821    0.575167
N      -3.319721   -1.185330    0.315484
N      -2.684717    0.020090    0.068053
C      -3.372859    1.207150   -0.255457
O      -4.561291    1.290485   -0.347513
H       1.197490   -0.142473   -0.579855
H       1.395027    1.554562   -0.048348
H       1.091965    0.270432    1.160205
H      -0.258616   -2.027596    0.701385
H      -2.664337    2.037391   -0.409468
