14

C      -0.024048    1.493866    0.047286
N      -0.006984    0.034837    0.028060
C      -0.061640   -0.697407   -1.143166
N      -0.049224   -1.969720   -1.217817
C       0.026671   -2.718216   -0.004059
O       0.040309   -3.921439   -0.023749
N       0.084663   -1.998883    1.209179
C       0.065946   -0.719486    1.171153
O       0.118278    0.017225    2.287872
H       0.885802    1.885805    0.507556
H      -0.084938    1.846710   -0.983644
H      -0.887653    1.863720    0.604672
H      -0.118759   -0.089128   -2.045483
H       0.166797   -0.619668    3.016865
