22

C      -0.059458    1.575049   -0.088813
C       1.489728    1.539831    0.004213
C       1.386084    0.097744    0.585457
C      -0.060851    0.025918    0.011508
C       2.400196   -0.942975    0.169825
C       3.847172   -0.871419    0.743657
C       3.845852   -2.420614    0.842656
C       2.296620   -2.385147    0.750830
H      -0.507955    2.038668    0.794853
H      -0.504759    2.026851   -0.978320
H       1.952617    1.531926   -0.988608
H       1.985451    2.302465    0.610034
H       1.343373    0.146776    1.681570
H      -0.832198   -0.448554    0.623286
H      -0.068791   -0.441692   -0.979098
H       2.442955   -0.991973   -0.926308
H       4.618459   -0.396257    0.132354
H       3.854998   -0.404777    1.734743
H       4.293515   -2.883363   -0.041912
H       4.291910   -2.873313    1.731315
H       1.834620   -2.377175    1.744088
H       1.800180   -3.147604    0.145387
