14

N      -0.097621    1.311956    0.267343
C      -0.004851    0.066837    0.066067
C      -1.198767   -0.849850   -0.146023
C      -0.619813   -2.282956   -0.062996
C      -1.128586   -3.205879   -1.068692
N      -1.555355   -3.917636   -1.871866
C       0.917870   -2.090061   -0.158899
O       1.754330   -2.941570   -0.281098
N       1.138016   -0.732757   -0.027229
H       0.813738    1.761108    0.368548
H      -1.974468   -0.652483    0.593544
H      -1.624337   -0.654523   -1.133589
H      -0.804389   -2.721204    0.925172
H       2.079620   -0.368633    0.007436
