22

C       0.029368    1.650181   -0.054681
C      -0.085681    0.127401    0.058038
C       0.784360   -0.453060    1.180259
C       0.753380   -1.974417    1.286833
C       1.548846   -2.615954    2.463896
C       0.197485   -3.217274    2.902321
O      -0.193999   -3.966523    3.760220
N      -0.458082   -2.577936    1.877886
C      -1.809708   -2.747481    1.407016
H       1.062533    1.954151   -0.256240
H      -0.596486    2.038709   -0.863805
H      -0.283370    2.140615    0.873683
H      -1.134666   -0.146148    0.222921
H       0.202763   -0.333843   -0.895925
H       1.827926   -0.152217    1.013501
H       0.487089   -0.025009    2.146740
H       0.996850   -2.424533    0.313624
H       2.298863   -3.357037    2.182068
H       1.981825   -1.905235    3.171247
H      -2.290627   -3.482427    2.057936
H      -2.385717   -1.816159    1.447936
H      -1.828398   -3.122149    0.375850
