19

C      -0.081446    1.540674   -0.002960
C       0.115357    0.039907    0.021664
O       1.194910   -0.412967   -0.861677
C       1.728324   -1.193160    0.220084
C       2.220376   -0.333543    1.341311
C       0.742787   -0.660184    1.243224
C       0.162146   -1.858553    1.983179
C       0.862096   -3.039778    1.309137
C       1.688957   -2.672317    0.319153
H       0.818372    2.067107    0.326157
H      -0.322583    1.875919   -1.016731
H      -0.909419    1.820213    0.657457
H      -0.813151   -0.473334   -0.264102
H       2.759041   -0.838109    2.135858
H       2.566311    0.670003    1.114638
H       0.356590   -1.835147    3.062829
H      -0.928518   -1.922624    1.871963
H       0.723078   -4.062943    1.647639
H       2.276369   -3.346545   -0.293145
