15

N       0.232330    1.447025   -0.140091
C       0.017635    0.052739   -0.044710
C      -0.275586   -0.849480   -1.212986
C      -1.170244   -0.923544   -0.010318
N      -0.509263   -1.792099    0.988378
C       0.609604   -0.792364    1.107421
C       1.954854   -1.342672    0.935586
N       3.021221   -1.760145    0.778963
H       0.192481    1.790344   -1.090002
H      -0.389271    1.995743    0.441789
H      -0.699239   -0.327660   -2.066435
H       0.372174   -1.686972   -1.458857
H      -2.243276   -0.778669   -0.034362
H      -1.031757   -1.820278    1.858293
H       0.572010   -0.231669    2.047122
