21

C       0.049461    0.858456    1.310273
C      -0.245288    0.286817   -0.077189
O       0.819794   -0.542148   -0.532668
C      -1.589645   -0.442630   -0.149525
C      -2.791172    0.376341   -0.365476
O      -2.215660   -0.354222   -1.444603
C      -1.637476   -1.789224    0.507578
C      -2.120603   -1.960228    1.933682
C      -2.923217   -2.516784    0.788378
H       1.004766    1.390653    1.297382
H      -0.731816    1.555035    1.628862
H       0.108586    0.060133    2.059122
H      -0.299643    1.101795   -0.807457
H       1.118011   -1.077145    0.210071
H      -3.767039    0.033022   -0.026655
H      -2.693316    1.461126   -0.426820
H      -0.807317   -2.421580    0.207097
H      -1.587761   -2.646703    2.582635
H      -2.510525   -1.082749    2.438435
H      -3.861644   -2.036902    0.537548
H      -2.927232   -3.589999    0.635547
