14

C      -0.028348    1.533951    0.128795
C       0.013200    0.052011   -0.001820
C       0.055100   -0.776549   -1.109752
O       0.067214   -0.363941   -2.393718
N       0.083737   -2.085957   -0.770365
C       0.060237   -2.096593    0.557988
N       0.017458   -0.826753    1.057910
C       0.075429   -3.236512    1.395453
N       0.086552   -4.144213    2.115756
H       0.838403    1.925985    0.674308
H      -0.024705    1.978941   -0.868156
H      -0.931302    1.878700    0.646794
H       0.097877   -1.157435   -2.942142
H      -0.006670   -0.581177    2.034670
