18

N       0.128303    1.385581    0.128498
C      -0.055975    0.010384    0.026622
C      -1.138952   -0.810991    0.021468
C      -2.640015   -0.803612    0.042916
C      -2.971354   -2.259645   -0.412937
C      -1.750665   -3.143628   -0.010216
C      -0.624185   -2.149917   -0.013613
C       0.723612   -2.063975   -0.033426
O       1.086613   -0.726183   -0.007810
H       0.966441    1.695908   -0.348009
H      -0.674955    1.905341   -0.198745
H      -3.031679   -0.613885    1.051873
H      -3.101808   -0.060620   -0.617040
H      -3.912692   -2.627371    0.004356
H      -3.071746   -2.272730   -1.503394
H      -1.893222   -3.566285    0.992955
H      -1.609575   -3.987143   -0.692400
H       1.544568   -2.758425   -0.071480
