18

C       0.072859    1.630429    0.170154
C       0.147585    0.112310    0.081954
C       1.195120   -0.600973   -0.766712
C       2.443162   -0.801518    0.034880
N       1.281153   -1.767562    0.170612
C       0.744257   -0.740266    1.229893
C       2.180376   -0.273372    1.409958
C       3.029375   -0.328424    2.593130
O       2.636450    0.927629    2.000298
H       1.039007    2.069958    0.426945
H      -0.255286    2.053085   -0.785679
H      -0.650495    1.939721    0.932315
H      -0.830347   -0.308461   -0.177253
H       1.192332   -0.751562   -1.841196
H       3.384732   -1.106109   -0.406012
H       0.143260   -1.085009    2.069018
H       2.592928   -0.538372    3.568620
H       4.085416   -0.575235    2.493589
