19

N      -0.136497   -1.122405   -0.236584
C      -0.079836    0.024257   -0.105176
C      -0.024720    1.473646    0.084058
C      -0.575228    1.950525    1.456501
C       0.039822    3.357219    1.567502
C       1.389094    3.252941    0.822841
C       2.601569    2.684226    1.600362
C       2.378468    1.356278    0.838035
N       1.342115    2.007270   -0.023103
H      -0.625558    1.928960   -0.715195
H      -1.666706    1.946006    1.494553
H      -0.212123    1.291319    2.250553
H      -0.605191    4.088999    1.069649
H       0.162088    3.683484    2.603742
H       1.593352    4.156751    0.241970
H       3.546897    3.181118    1.376540
H       2.480856    2.633428    2.684970
H       3.223265    0.977886    0.256558
H       1.998827    0.537544    1.459848
