19

C      -0.241204    1.579333    0.039514
C       0.036619    0.091040    0.099874
C       1.349690   -0.608271   -0.225562
C       2.705062    0.108189   -0.134901
C       2.930691    0.406722    1.345541
O       2.011848    1.347668    1.918852
C       1.760494   -0.050563    2.110257
C       0.761793   -0.702058    1.167747
O       0.228476   -1.915341    1.613978
H       0.624138    2.178412    0.312589
H      -0.557520    1.852355   -0.973921
H      -1.056572    1.849241    0.720283
H      -0.797409   -0.501006   -0.276907
H       1.285953   -1.465297   -0.887102
H       3.495653   -0.561572   -0.489926
H       2.761425    1.020518   -0.739159
H       3.939480    0.452932    1.749703
H       1.802908   -0.407649    3.135952
H      -0.559011   -1.721836    2.134293
