23

C       0.528122    1.372021   -0.086338
O      -0.132846    0.234465   -0.603970
C       0.746563   -0.690459   -1.162987
C       1.465922   -1.690233   -0.288968
C       0.363194   -2.138281   -1.239205
C      -0.914423   -2.767635   -0.747618
C      -0.826865   -4.284638   -0.706405
C      -1.783431   -2.113630    0.301375
C      -2.246158   -2.164239   -1.136791
H       1.227411    1.102758    0.717755
H       1.089752    1.901300   -0.871067
H      -0.240176    2.039302    0.310804
H       1.298820   -0.290373   -2.016227
H       2.500532   -1.941559   -0.496589
H       1.198670   -1.676567    0.762841
H       0.719788   -2.615610   -2.150915
H      -0.036730   -4.617077   -0.023038
H      -1.770503   -4.723548   -0.367554
H      -0.604314   -4.698278   -1.697625
H      -2.266152   -2.772012    1.016700
H      -1.491866   -1.148717    0.691313
H      -2.233701   -1.229934   -1.686015
H      -3.056190   -2.836577   -1.401171
