14

O      -0.585698    0.807206   -0.645290
C       0.209273    0.976120    0.239627
C       1.398751    1.929458    0.143522
C       1.437570    2.788614   -1.122467
C       1.409652    4.234283   -0.634561
O       1.441732    5.242161   -1.287652
N       1.338436    4.190938    0.760805
C       1.342665    2.924617    1.317835
O       1.294138    2.659342    2.491196
H       0.134843    0.449002    1.211382
H       2.297684    1.319250    0.293620
H       2.328901    2.633452   -1.733759
H       0.565863    2.597370   -1.754918
H       1.297626    5.028492    1.325065
