20

C       0.167009    1.768437   -0.183329
C       0.687362    0.359070    0.084174
N       1.171986   -0.248108   -1.153058
C       1.792331   -1.339274   -1.087196
C       2.354011   -2.125895   -2.251436
C       3.388839   -3.036336   -1.590808
O       4.612646   -2.320353   -1.555329
C       2.776820   -3.216738   -0.190604
O       2.056519   -2.012434    0.083562
H       0.962711    2.403507   -0.584580
H      -0.643863    1.746694   -0.917637
H      -0.209747    2.226924    0.736878
H       1.483451    0.384109    0.841769
H      -0.114352   -0.260734    0.511561
H       1.557759   -2.717015   -2.716832
H       2.792070   -1.476982   -3.008796
H       3.505117   -3.999495   -2.104950
H       5.257304   -2.840932   -1.065455
H       2.087900   -4.071671   -0.162815
H       3.534765   -3.349983    0.587497
