17

C       0.072697    1.589818   -0.135695
O       1.545210    1.465394    0.077819
C       1.173302    0.311796    0.945755
C       1.125770   -1.244548    1.244045
O      -0.360372   -1.035897    1.079621
C       0.028368    0.034335    0.090660
C       0.261424   -0.700942   -1.241360
C       1.211154   -1.859150   -1.072519
C       1.652366   -2.123151    0.153307
H      -0.385926    2.195364    0.652189
H      -0.152205    1.981904   -1.130683
H       0.855846    0.762711    1.892761
H       1.357059   -1.562958    2.261102
H      -0.719664   -1.048240   -1.595729
H       0.644223   -0.015985   -2.005371
H       1.527924   -2.417190   -1.948049
H       2.363917   -2.906356    0.387651
