17

C       0.031335    1.538745   -0.112414
C       0.024369    0.013330    0.064600
O       0.626580   -0.374906    1.288463
C      -1.375886   -0.539909   -0.024211
C      -2.036095   -1.172469   -0.994446
C      -3.427201   -1.484834   -0.528857
O      -3.496627   -0.975177    0.804249
C      -2.298851   -0.414902    1.135609
O      -2.085900    0.079467    2.214563
H       1.053825    1.909241   -0.001481
H      -0.345129    1.826636   -1.099406
H      -0.595103    2.013414    0.649272
H       0.634617   -0.441997   -0.723464
H       0.032536   -0.078581    1.993888
H      -1.671173   -1.440837   -1.977859
H      -4.201379   -0.999539   -1.136128
H      -3.639299   -2.560907   -0.507200
