16

C      -0.167766    1.552672   -0.091358
C      -0.015791    0.041532   -0.068548
O      -1.191118   -0.624440   -0.456585
C       1.227526   -0.500824   -0.798195
O       1.921078   -0.721215    0.448358
C       0.701696   -0.539331    1.208899
C       0.857525    0.277204    2.395330
C       0.955351    0.962259    3.378924
H       0.771780    2.044474    0.171989
H      -0.472537    1.879989   -1.090236
H      -0.922274    1.879325    0.633832
H      -1.946313   -0.157734   -0.083190
H       1.020607   -1.437318   -1.330560
H       1.767901    0.191092   -1.452338
H       0.255230   -1.509587    1.468323
H       1.053421    1.560868    4.250882
