18

N      -0.058629    1.467016    0.048993
C      -0.048234    0.051504   -0.035670
C       0.651139   -0.822299   -1.098162
C      -0.547938   -1.822977   -1.050278
C      -1.239256   -0.921694   -0.027392
C      -0.334483   -0.773786    1.204255
N       0.583118   -1.760584    1.720696
C      -0.973715   -0.036511    2.279160
N      -1.491627    0.492559    3.167028
H       0.764746    1.828631    0.519007
H      -0.118784    1.896421   -0.867731
H       0.695951   -0.294837   -2.054770
H       1.656457   -1.199695   -0.877387
H      -1.084410   -1.887192   -1.998228
H      -0.318384   -2.836845   -0.709377
H      -2.298342   -0.707861    0.044849
H       0.092443   -2.595701    2.023233
H       1.271013   -2.030781    1.029715
