15

O       0.030249   -0.033607    0.060673
C      -0.026056    1.174487    0.084618
C      -1.287508    2.046869    0.099485
C      -0.772826    3.454309    0.341101
C      -1.583350    4.671215    0.309965
O      -1.166698    4.098860    1.554603
C       0.729109    3.444235    0.036994
N       1.045511    2.029784    0.086750
H      -1.792562    1.943896   -0.866935
H      -1.979170    1.724830    0.879853
H      -1.121633    5.625577    0.056459
H      -2.649195    4.603783    0.095023
H       0.946498    3.879232   -0.949069
H       1.266900    4.020954    0.796402
H       1.980866    1.665933   -0.001267
