22

C       0.030531    1.539489    0.089376
C       0.002773    0.019694    0.027798
C       0.643168   -0.536071   -1.253593
C       0.887287   -2.043700   -1.170726
C       0.496466   -2.849233   -2.390424
N       2.135581   -2.406670   -0.462261
C       0.837665   -2.679430    0.175898
C       0.496906   -1.842780    1.391142
O       0.685157   -0.460083    1.179353
H       1.064889    1.896764    0.091401
H      -0.484613    1.971087   -0.774414
H      -0.456702    1.895467    1.000978
H      -1.046163   -0.327333    0.071298
H      -0.010428   -0.307697   -2.103372
H       1.599978   -0.032317   -1.428321
H       1.060573   -2.519898   -3.271501
H       0.692957   -3.916743   -2.241818
H      -0.568668   -2.733338   -2.620220
H       2.512884   -3.268306   -0.851009
H       0.500603   -3.713932    0.233098
H      -0.551195   -2.048068    1.675367
H       1.137011   -2.113197    2.237693
