19

O      -0.215886    0.042835    0.039187
C      -0.023684    1.231276    0.095332
C       1.320509    1.896455    0.001077
C       1.475584    3.208555    0.806521
O       1.775759    3.981955   -0.368939
C       1.524671    2.853695   -1.234551
C       2.769852    2.362115   -1.961492
C       3.592814    1.655568   -0.867958
C       2.529105    0.952220    0.001134
H      -0.876616    1.941475    0.204427
H       0.556210    3.555849    1.298034
H       2.295630    3.217875    1.534209
H       0.664277    3.037825   -1.887841
H       2.466456    1.650685   -2.739642
H       3.297627    3.187922   -2.447194
H       4.332755    0.959900   -1.271320
H       4.134361    2.402654   -0.278329
H       2.880817    0.733135    1.013810
H       2.220821    0.001620   -0.445269
