18

C      -0.311530    1.558159    0.056557
C       0.003630    0.062576   -0.100120
C      -1.268447   -0.772143   -0.106995
C      -1.278094   -2.152102    0.434700
N      -1.976711   -1.063793    1.147401
C       0.736097   -0.174639   -1.426807
N       1.917138   -0.851478   -1.338107
O       0.282356    0.211446   -2.487099
H       0.605326    2.149770    0.139516
H      -0.863551    1.909725   -0.818326
H      -0.917688    1.733250    0.949966
H       0.629728   -0.271429    0.738991
H      -1.929100   -0.540447   -0.938941
H      -1.926757   -2.908628    0.002975
H      -0.354390   -2.540852    0.857970
H      -1.415008   -0.760114    1.940533
H       2.267909   -1.214721   -0.470312
H       2.402418   -1.077517   -2.191384
