14

O      -0.140427    1.324333   -0.027290
N       0.033978   -0.063348   -0.054693
C      -1.080561   -0.657279   -0.100373
C      -2.547159   -0.314178    0.056126
N      -2.881814   -1.783421    0.221718
C      -2.483253   -2.421389   -1.026884
C      -1.393403   -2.112572   -0.046959
C      -0.652797   -3.122881    0.643367
N      -0.038080   -3.938522    1.185261
H       0.766060    1.645254    0.039759
H      -2.753582    0.236302    0.976674
H      -3.061489    0.162829   -0.782683
H      -2.783211   -3.462301   -1.095027
H      -2.520176   -1.860542   -1.958426
