15

O       0.046798    1.362690    0.037098
C       0.035666   -0.032472   -0.032049
C      -1.352820   -0.641122   -0.364220
N      -1.623524    0.140337   -1.627590
C      -0.592295   -0.760096   -2.220757
C      -0.842544   -1.892817   -1.213597
O       0.551900   -2.096471   -0.960223
C       0.683347   -0.678867   -1.286622
H      -0.588504    1.647616   -0.640167
H       0.488703   -0.438267    0.873671
H      -2.127922   -0.667132    0.398617
H      -2.532651   -0.122201   -2.003394
H      -0.486876   -0.844010   -3.300429
H      -1.447294   -2.791113   -1.335430
H       1.676016   -0.374198   -1.610338
