20

C       0.070205    1.617032    0.201299
C       0.037780    0.082312    0.082926
C       0.715813   -0.477537   -1.184998
C       1.261407   -1.854546   -0.740614
N       1.482890   -1.819490    0.721801
C       2.267400   -0.657117    1.160796
C       0.783349   -0.622723    1.221448
C      -1.426731   -0.346927    0.164567
O      -2.051249   -0.884286   -0.711866
H       1.104314    1.969839    0.247826
H      -0.417781    2.089486   -0.657105
H      -0.440488    1.959548    1.108229
H      -0.001471   -0.569135   -2.002459
H       1.515053    0.192023   -1.513880
H       0.519184   -2.635260   -0.932258
H       2.185486   -2.137194   -1.253551
H       2.836981   -0.814050    2.072174
H       2.774342   -0.050362    0.414296
H       0.280143   -0.713851    2.181845
H      -1.909468   -0.101663    1.140273
