17

C      -0.090618    1.713977    0.419451
C      -0.091091    0.218621    0.125181
C       0.984093   -0.259328   -0.903812
C       1.880990   -0.528145    0.296639
O       3.044838   -0.357898    0.536337
C       0.697757   -0.623912    1.256773
O       0.854772   -0.130842    2.541023
C      -1.472912   -0.339561   -0.103866
O      -1.699953   -1.351166   -0.720037
H       0.924052    2.082226    0.598557
H      -0.505697    2.280510   -0.420152
H      -0.682128    1.933732    1.313148
H       0.644133   -1.174947   -1.397582
H       1.349888    0.457521   -1.640301
H       0.270584   -1.633584    1.283596
H       1.730478    0.275070    2.588510
H      -2.296532    0.235526    0.375474
