20

O      -2.376211    1.655068    0.978908
C      -2.441283    0.247511    1.072642
C      -1.482491   -0.414261    0.085939
O      -0.190200    0.099429    0.400957
C      -1.464039   -1.928936    0.191695
C      -2.604395   -2.814957   -0.380301
C      -1.525420   -3.482167   -1.231655
C      -0.845027   -2.491075   -2.078906
N      -0.412015   -2.609896   -0.666268
H      -1.438003    1.877141    1.017008
H      -2.199488   -0.101232    2.090224
H      -3.473410   -0.043306    0.850139
H      -1.774055   -0.097524   -0.928322
H       0.460634   -0.452765   -0.047957
H      -1.234926   -2.198142    1.226973
H      -3.053879   -3.465528    0.370879
H      -3.404020   -2.317330   -0.938018
H      -1.392889   -4.551472   -1.358175
H      -0.083536   -2.847956   -2.765098
H      -1.378464   -1.607029   -2.419042
