10

O       0.002007    0.004240    0.002959
C      -0.014113    1.191958    0.009644
O      -1.120826    1.954715   -0.194353
C      -0.811350    3.330310    0.038018
C       0.724793    3.351343    0.005459
O       1.071524    1.982125    0.222380
H      -1.271981    3.935255   -0.744846
H      -1.215523    3.628217    1.011203
H       1.120584    3.671043   -0.964250
H       1.168957    3.959716    0.795152
