14

C      -0.014643    1.526383    0.044836
C      -0.003348    0.031542   -0.060703
C      -0.037707   -0.674917   -1.230514
C      -0.019161   -2.091230   -1.129077
N       0.027820   -2.780114   -0.020968
C       0.064039   -2.098397    1.185772
O       0.108179   -2.611848    2.281455
N       0.045393   -0.679433    1.092621
H       0.887514    1.886802    0.551761
H      -0.060802    1.982184   -0.944961
H      -0.878318    1.868533    0.625937
H      -0.077276   -0.175884   -2.188349
H      -0.045947   -2.675174   -2.050465
H       0.072282   -0.208371    1.987273
