13

O       0.002534   -0.011515    0.147555
C      -0.047029    1.186810    0.095887
C      -1.273228    2.084668    0.035285
C      -0.772143    3.470667    0.499427
C       0.694384    3.552401    0.019713
C       1.206202    2.121657    0.085989
O       2.341189    1.733002    0.129126
H      -1.601855    2.123456   -1.012798
H      -2.101143    1.676067    0.618045
H      -1.385078    4.288293    0.115810
H      -0.805255    3.526658    1.592619
H       0.740168    3.870466   -1.031343
H       1.327849    4.233936    0.590886
