15

C      -0.015310    1.476114   -0.022510
N      -0.008326    0.030753    0.022244
C      -0.039448   -0.826650   -1.054798
N      -0.023128   -2.111008   -0.744069
C       0.020995   -2.075447    0.620071
C       0.032058   -0.787886    1.137746
C       0.077965   -0.932356    2.538836
N       0.093672   -2.229990    2.854141
N       0.058847   -2.918883    1.681916
H       0.888023    1.885909    0.441013
H      -0.049930    1.799514   -1.064758
H      -0.890215    1.879157    0.497976
H      -0.074082   -0.438435   -2.063417
H       0.100256   -0.195358    3.326479
H       0.063947   -3.923237    1.704516
