20

C      -0.130423    1.523203    0.066297
C       0.055054    0.012108   -0.091769
O       0.705223   -0.302454   -1.324237
C       0.781330   -0.591128    1.092439
C       0.033345   -1.188643    2.275297
C       0.838534   -2.067645    1.344770
C       0.163644   -3.069006    0.435609
O       2.101214   -2.485207    1.807894
H       0.841734    2.023996    0.152704
H      -0.650002    1.934660   -0.803078
H      -0.707304    1.757059    0.966880
H      -0.933206   -0.452618   -0.185643
H       1.618604   -0.003152   -1.255688
H       1.703780   -0.076324    1.356452
H       0.433393   -1.006906    3.266428
H      -1.050445   -1.233766    2.219315
H      -0.815510   -2.720773    0.098341
H       0.780386   -3.259759   -0.446702
H       0.010387   -4.018512    0.964014
H       1.965985   -3.258515    2.367317
