21

C      -0.078723    1.544575   -0.027813
C       0.043861    0.016897   -0.006411
C       0.715919   -0.517171   -1.280531
O       0.875155   -1.919090   -1.231792
C       1.845527   -2.320094   -0.278146
C       1.650436   -1.697426    1.102000
C       2.242302   -0.331685    1.414085
C       0.754988   -0.500623    1.236433
O      -0.028912   -0.491032    2.402664
H       0.906824    2.022806   -0.045571
H      -0.634304    1.884748   -0.908141
H      -0.614146    1.912751    0.853967
H      -0.962190   -0.419601    0.027514
H       0.086348   -0.304731   -2.150139
H       1.687719   -0.018483   -1.448705
H       1.760331   -3.408146   -0.214150
H       2.854424   -2.086899   -0.659003
H       1.610752   -2.392618    1.933344
H       2.598291   -0.159470    2.423634
H       2.820518    0.160157    0.636723
H      -0.101178    0.421526    2.702914
