17

C       0.015405    1.514021   -0.012065
C       0.055399    0.004339   -0.049243
O       1.083704   -0.632611   -0.010977
C      -1.308485   -0.706823   -0.100385
O      -2.298136    0.125670   -0.630162
C      -1.167460   -2.191617   -0.584946
C      -1.043671   -2.672630    0.897334
C      -1.661470   -1.335638    1.274089
O      -2.441529   -0.945184    2.096218
H       1.027403    1.899854    0.112520
H      -0.431970    1.898843   -0.932928
H      -0.627522    1.854573    0.806748
H      -3.016445    0.165189    0.015791
H      -2.090704   -2.524811   -1.060623
H      -0.302495   -2.382417   -1.218077
H      -1.584530   -3.562513    1.222615
H       0.004844   -2.732873    1.199934
