16

O       0.230364    1.260136    0.206013
C      -0.003523   -0.107723   -0.035623
C      -1.494073   -0.430244   -0.060658
C      -1.813618   -1.936358   -0.109222
O      -2.083907   -2.264959    1.257560
C      -2.673311   -1.120241    1.795025
O      -2.051291   -0.005794    1.206595
C      -4.144071   -1.092308    1.523033
N      -5.280885   -1.077851    1.319773
H      -0.233859    1.479413    1.022401
H       0.436439   -0.339066   -1.012074
H       0.483032   -0.750484    0.716637
H      -1.990364    0.128961   -0.859762
H      -2.686738   -2.149445   -0.737148
H      -0.971824   -2.550770   -0.434972
H      -2.508760   -1.109108    2.876281
