18

C       0.478562    1.530062   -0.733167
O       0.536772    0.203984   -1.207580
C       0.261902   -0.755343   -0.209084
C       0.412526   -2.116017   -0.809166
N       1.507905   -2.470041   -1.732267
C       0.090848   -2.622050   -2.159727
C      -0.463560   -3.949627   -1.526814
O       0.561583   -4.561354   -0.744235
C      -0.145917   -3.457455   -0.187113
H      -0.523844    1.781958   -0.354068
H       1.206789    1.706035    0.073285
H       0.714318    2.186603   -1.573697
H       0.954743   -0.633070    0.642954
H      -0.760817   -0.624845    0.186833
H       1.812837   -1.577785   -2.126504
H      -0.312295   -2.099505   -3.016139
H      -1.269453   -4.572543   -1.894750
H      -0.634401   -3.587097    0.771589
