16

C       0.035851    1.491118    0.008386
C       0.034523   -0.017186    0.002893
O       1.045510   -0.688085   -0.007823
N      -1.205447   -0.665827    0.011119
C      -1.252887   -2.123010    0.006351
C      -2.724572   -2.408703    0.017594
C      -3.426701   -1.274586    0.027465
C      -2.505179   -0.111603    0.024004
O      -2.783117    1.065838    0.030456
H       1.074883    1.820127    0.000324
H      -0.500622    1.885726   -0.857609
H      -0.484878    1.879229    0.886864
H      -0.748099   -2.529860   -0.877917
H      -0.733480   -2.536092    0.879191
H      -3.113796   -3.418596    0.017234
H      -4.498982   -1.142847    0.036842
