18

C      -0.008922    1.560349    0.089407
C       0.064976    0.054615    0.046677
C      -1.249241   -0.763277   -0.009643
O      -0.844645   -1.606696    1.094660
C       0.406780   -0.922454    1.242627
C       1.531590   -1.485739    0.349298
N       1.202298   -0.499167   -0.716211
C       0.697878   -0.489072    2.644581
O       1.767395   -0.057655    2.998817
H       0.951917    1.980558    0.396183
H      -0.241058    1.950594   -0.909048
H      -0.786426    1.906882    0.777456
H      -2.159939   -0.202206    0.235664
H      -1.413766   -1.331856   -0.933856
H       2.537026   -1.336261    0.753697
H       1.377213   -2.541413    0.103948
H       0.961346   -0.893626   -1.619675
H      -0.169276   -0.575641    3.335713
