21

O      -0.057609    1.412350    0.095922
C       0.057214    0.013589   -0.016972
C       0.170329   -0.618842   -1.429046
O      -0.873241   -1.558213   -1.089800
C      -1.321420   -0.690025   -0.015123
C      -1.827425   -1.399866    1.228375
C      -0.709726   -1.987935    2.100644
C       0.400913   -0.953386    2.329013
C       1.052835   -0.590421    0.989343
H       0.823864    1.785973    0.197814
H      -0.144054    0.075696   -2.220628
H       1.102236   -1.119277   -1.713434
H      -2.085109    0.004059   -0.396259
H      -2.392365   -0.664527    1.816106
H      -2.542998   -2.172242    0.923103
H      -1.127867   -2.324679    3.055018
H      -0.282459   -2.872990    1.612950
H      -0.016900   -0.052964    2.798573
H       1.158463   -1.347471    3.014755
H       1.487335   -1.501001    0.562010
H       1.885782    0.112126    1.128834
