19

C       0.181110    1.411173    0.110321
N       0.145116   -0.040956    0.021482
C       0.616923   -0.562679   -1.242793
C       0.534748   -2.087507   -1.235183
C       1.342386   -2.833290   -2.333624
C       2.170161   -3.383824   -1.156453
O       1.377359   -2.645007   -0.194557
C      -0.855197   -2.550914   -1.090571
N      -1.936643   -2.953095   -1.029220
H       1.174924    1.852666   -0.086253
H      -0.520943    1.840498   -0.613289
H      -0.139069    1.722057    1.108381
H       0.694043   -0.454979    0.767744
H      -0.012816   -0.174795   -2.054329
H       1.662716   -0.288504   -1.481859
H       0.777041   -3.570425   -2.901701
H       1.872229   -2.167700   -3.016255
H       2.096206   -4.463672   -0.991608
H       3.222794   -3.084367   -1.125501
