18

C       0.107756    1.326112    0.377909
O       0.000748   -0.075659    0.281554
C      -1.254193   -0.497952   -0.196025
C      -1.233476   -2.003519   -0.261134
O      -1.702862   -2.736493    0.876885
C      -2.432306   -2.850330   -0.338223
C      -3.849915   -2.293691   -0.355771
C      -4.823732   -3.256970    0.159011
N      -5.588897   -4.026609    0.554397
H       1.111415    1.550054    0.745534
H      -0.031857    1.813436   -0.600136
H      -0.630502    1.744233    1.079662
H      -2.062506   -0.151192    0.466169
H      -1.444228   -0.084718   -1.203609
H      -0.313423   -2.397348   -0.694519
H      -2.337487   -3.817594   -0.833099
H      -3.908689   -1.380604    0.242066
H      -4.131211   -2.035285   -1.383980
