22

C      -0.023126    1.585480    0.126947
C       0.030272    0.054662    0.089265
C      -1.346629   -0.602261   -0.040514
C      -2.120580   -0.282246   -1.341519
C      -3.119793   -1.457265   -1.541068
C      -2.753455   -2.508093   -0.460013
C      -1.330532   -2.139411   -0.018241
O      -0.357094   -2.569285   -0.969770
H       0.977401    2.012220    0.249443
H      -0.446059    1.995208   -0.796072
H      -0.640235    1.942608    0.959830
H       0.658900   -0.279109   -0.742816
H       0.514517   -0.312403    1.003803
H      -1.962967   -0.290429    0.815614
H      -2.624535    0.686373   -1.292741
H      -1.417076   -0.237751   -2.178733
H      -4.158918   -1.133117   -1.436718
H      -3.022905   -1.878244   -2.544971
H      -3.427114   -2.432479    0.401468
H      -2.817821   -3.540251   -0.821928
H      -1.085865   -2.533934    0.979619
H      -0.425184   -3.525332   -1.050349
