17

O       0.004848   -0.057347    0.120413
C      -0.013064    1.148131    0.012167
N      -1.142804    1.957129   -0.066451
C      -0.823512    3.360266    0.062990
C      -0.803003    4.043606    1.447755
C      -0.007395    3.249139    2.440293
C       0.737834    4.064691    1.426014
C       0.738020    3.381507    0.041033
N       1.091609    1.987517   -0.097802
H      -2.024382    1.556356    0.207140
H      -1.304623    3.971283   -0.704408
H      -1.483854    4.829402    1.751923
H       0.001229    3.658455    3.445138
H       0.007026    2.163945    2.409041
H       1.405238    4.868945    1.711143
H       1.180567    4.005064   -0.739374
H       1.991086    1.610978    0.150815
