16

C       0.168200    1.361231   -0.320353
C      -0.028837   -0.038290    0.196860
O       0.881188   -0.758599    0.546110
C      -1.458689   -0.567081    0.285913
N      -1.514193   -1.863347    0.690042
N      -2.406216    0.232492   -0.052453
C      -3.775344   -0.262516   -0.046532
C      -4.237549   -0.785948    1.250941
N      -4.547879   -1.223349    2.275635
H       1.233624    1.591249   -0.339037
H      -0.265462    1.458345   -1.319471
H      -0.367657    2.073390    0.313455
H      -0.631144   -2.235699    1.012744
H      -2.352246   -2.232969    1.109844
H      -4.443787    0.552678   -0.339599
H      -3.907891   -1.067242   -0.787220
