19

C      -0.415760    1.454868   -0.156604
C      -0.013762   -0.004431   -0.036737
C       1.306764   -0.585940   -0.611740
C       2.132504    0.098677    0.499866
C       0.878581   -0.582616    1.127137
O       1.135463   -1.757947    0.279401
C       0.521139   -0.794307    2.573044
C       0.429398    0.465283    3.413877
O       0.319821   -1.899888    3.013578
H       0.399710    2.150627    0.055588
H      -0.772706    1.662601   -1.171278
H      -1.240327    1.684788    0.526842
H      -0.853117   -0.677306   -0.230643
H       1.579534   -0.788431   -1.647664
H       3.074025   -0.396181    0.739756
H       2.210402    1.186789    0.514729
H      -0.264155    1.183883    2.963281
H       0.095869    0.208650    4.419952
H       1.407838    0.956348    3.465677
