23

C       0.195629    1.408738   -0.448928
C       0.447315   -0.083013   -0.247940
C       1.105489   -0.945925   -1.339704
C       2.582405   -0.749830   -1.542362
C       3.388606    0.531201   -1.592645
O       4.738981    0.316135   -1.201145
C       2.117189   -1.498053   -0.314794
C       1.498345   -0.632735    0.796965
C       2.372828    0.295427    1.637832
H       1.104854    1.982830   -0.638618
H      -0.474946    1.568295   -1.300883
H      -0.288665    1.840541    0.434375
H      -0.517195   -0.543256   -0.007985
H       0.531539   -1.506760   -2.069609
H       2.959580   -1.461006   -2.277759
H       3.434940    0.892638   -2.626046
H       2.931791    1.329036   -0.998742
H       4.714076   -0.143184   -0.354796
H       2.409622   -2.532317   -0.168921
H       0.965218   -1.292474    1.489373
H       2.976003    0.984432    1.042366
H       1.761043    0.898325    2.318234
H       3.060621   -0.293127    2.256516
