18

C      -0.012204    1.624374    0.008730
C       1.474331    1.177166   -0.102594
C       1.164224    0.187148    1.059096
C       2.060905   -0.978743    1.436484
O       2.188667   -2.087971    0.541323
C       2.224071   -1.916204   -0.799059
N       1.756758   -1.014660   -1.544708
C       0.967087    0.101215   -1.120743
C      -0.046726    0.070363    0.084594
H      -0.292446    2.160680    0.917955
H      -0.453087    2.079817   -0.880818
H       2.354923    1.812809   -0.212194
H       0.926621    0.701644    1.999381
H       3.071467   -0.599701    1.649143
H       1.684993   -1.430130    2.359664
H       2.731935   -2.771310   -1.246495
H       0.534496    0.548721   -2.020131
H      -0.925825   -0.567536    0.186861
