21

N      -0.053677    1.471009    0.069024
C       0.013254    0.007573   -0.020766
C       0.776511   -0.534933    1.209845
C       0.748628   -2.065624    1.296102
C      -0.689751   -2.602881    1.277144
C      -1.458984   -2.090187    0.051028
C      -1.425371   -0.559424   -0.032076
C       0.716345   -0.418057   -1.259000
N       1.269642   -0.705713   -2.233771
H       0.884894    1.862226    0.053773
H      -0.532531    1.846428   -0.745811
H       1.808786   -0.167437    1.189433
H       0.293307   -0.091004    2.087815
H       1.310018   -2.489423    0.453909
H       1.264914   -2.385590    2.207308
H      -0.684202   -3.697953    1.288935
H      -1.208710   -2.281809    2.190956
H      -1.021556   -2.515408   -0.861055
H      -2.500333   -2.427447    0.083763
H      -1.934227   -0.115752    0.831407
H      -1.947959   -0.209215   -0.929472
