18

O      -0.249620    0.146198    0.658549
C      -0.174518    1.263556    0.219968
C      -1.340196    2.122217   -0.283074
C      -0.707776    3.465121   -0.690302
C       0.588760    3.547719    0.146537
C       1.112035    2.102386    0.143398
C       2.134207    1.751404    1.236865
C       2.831691    0.488693    0.998461
N       3.421565   -0.483485    0.795119
H      -1.882353    1.609209   -1.081741
H      -2.044245    2.235437    0.550135
H      -0.454707    3.456776   -1.756226
H      -1.369088    4.317732   -0.522034
H       1.310035    4.263909   -0.254788
H       0.356030    3.855926    1.174427
H       1.555871    1.896183   -0.841415
H       2.889546    2.542722    1.302680
H       1.636310    1.699934    2.211453
