14

O       0.142114    1.380895    0.004162
C       0.001709    0.009551    0.019154
C      -0.465665   -0.753358    1.219581
N      -1.144730    0.040267    2.210283
C      -2.384391    0.516385    1.842317
O      -3.124187    1.208923    2.493555
C      -2.601001   -0.001608    0.389056
O      -3.616737    0.146801   -0.233317
C      -1.363242   -0.729235   -0.011285
H      -0.209620    1.739524    0.828949
H       0.748711   -0.465606   -0.608901
H       0.022471   -1.656348    1.569556
H      -0.724395    0.295133    3.090816
H      -1.456847   -1.570833   -0.684714
