25

C       0.074065    1.522981   -0.132762
C      -0.021366    0.008515    0.092506
C      -1.435106   -0.538764    0.056136
C      -2.315339   -0.502349   -1.233884
C      -3.096644   -1.644517   -0.514874
C      -3.998808   -2.601809   -1.258721
C      -1.712644   -2.073464    0.060352
C      -3.695628   -0.884753    0.689420
C      -2.447002   -0.053419    1.121759
H       1.117172    1.854031   -0.133289
H      -0.365631    1.808102   -1.094627
H      -0.449330    2.081673    0.649618
H       0.577789   -0.506720   -0.669614
H       0.435514   -0.246110    1.059110
H      -2.855470    0.420240   -1.472431
H      -1.774959   -0.858719   -2.115964
H      -3.473581   -3.085585   -2.089259
H      -4.371280   -3.391072   -0.594772
H      -4.871061   -2.082149   -1.672982
H      -1.102551   -2.607464   -0.674340
H      -1.691220   -2.601298    1.020315
H      -4.543096   -0.256061    0.396664
H      -4.043623   -1.567369    1.471663
H      -2.112039   -0.287537    2.137751
H      -2.623339    1.024889    1.070146
