16

C      -0.002665    1.465649   -0.020475
N      -0.003740    0.021506    0.082883
N      -0.004396   -0.739996   -1.054086
N      -0.005435   -1.999759   -0.705154
C      -0.005876   -2.051864    0.647061
C      -0.004807   -0.788610    1.157880
C      -0.005274   -0.809768    2.647342
O      -0.006591   -2.216152    2.945125
C      -0.007095   -3.047101    1.760401
H       0.887722    1.887013    0.454824
H       0.001020    1.711836   -1.082330
H      -0.895749    1.888103    0.448808
H       0.882917   -0.340680    3.095127
H      -0.892917   -0.339104    3.094563
H      -0.896094   -3.690873    1.774816
H       0.880678   -3.692547    1.775286
