13

N       0.046644    1.441266    0.164925
C       0.028369    0.053518    0.046437
C      -1.095783   -0.772372    0.016091
N      -0.603548   -2.056434   -0.025496
N       0.726148   -2.110347   -0.033955
C       1.123435   -0.837637    0.012940
C      -2.462803   -0.452884    0.021449
C      -3.632414   -0.156984    0.016679
H       0.822652    1.879251   -0.312092
H      -0.825584    1.873874   -0.109853
H      -1.141589   -2.905593   -0.055249
H       2.176849   -0.599407    0.022539
H      -4.662975    0.098230    0.024331
