15

N       0.156700   -1.199229    0.042228
C       0.224919   -0.066720   -0.172824
C       0.288228    1.374767   -0.428588
N       1.162844    2.039373    0.549521
C       1.373180    3.411193    0.310915
C       0.723446    4.564925    0.710401
C       1.467843    5.609669    0.122467
N       2.491724    5.153688   -0.594438
N       2.416550    3.816929   -0.460919
H       0.700655    1.534891   -1.429940
H      -0.739104    1.771763   -0.441633
H       0.817947    1.884123    1.489220
H      -0.156825    4.634142    1.328931
H       1.295467    6.674050    0.188168
H       3.126676    3.228878   -0.865747
