17

O      -0.146481   -0.008133   -0.006309
C      -0.079790    1.189573    0.010643
C      -1.268883    2.179371    0.079815
C      -0.626038    3.421937    0.654792
C       0.704148    3.355928    0.591833
C       1.845322    4.036543    1.299339
C       2.773359    2.846857    1.527289
C       2.412523    1.763968    0.832732
C       1.192760    2.056305   -0.010208
H      -1.674875    2.313525   -0.933537
H      -2.082252    1.772053    0.689829
H      -1.197328    4.201044    1.146751
H       2.343103    4.800435    0.682667
H       1.538204    4.534110    2.225858
H       3.642074    2.912955    2.172706
H       2.932801    0.814468    0.816660
H       1.474434    2.144173   -1.074938
