12

N      -0.011774    1.366902   -0.142373
C      -0.002946   -0.000247   -0.056388
C      -1.210439   -0.720898   -0.032815
F      -2.374607   -0.072263   -0.030977
C      -1.131464   -2.089612   -0.002808
F      -2.226063   -2.835364    0.023645
C       0.141179   -2.670123    0.000453
N       1.249806   -1.943975   -0.013461
N       1.184487   -0.617638   -0.035718
H       0.870362    1.805408    0.074804
H      -0.837505    1.847183    0.175776
H       0.249481   -3.749007    0.020958
