14

N       0.494777   -0.084880    0.797375
C      -0.171118    0.297349   -0.314889
O       0.200985    1.143968   -1.103443
C      -1.522042   -0.402863   -0.538695
C      -1.660425   -0.958812   -1.964527
O      -1.423649   -2.361147   -1.787374
C      -1.516596   -2.691842   -0.481003
O      -1.459260   -3.792128   -0.039020
O      -1.683292   -1.564635    0.281147
H       1.386338    0.336696    0.999647
H       0.141520   -0.821637    1.384481
H      -2.312472    0.309547   -0.291347
H      -2.663516   -0.818292   -2.376519
H      -0.915621   -0.540583   -2.640773
