15

O      -0.094361    1.428853   -0.173826
C       0.052359    0.023126   -0.056997
C      -1.350785   -0.541796    0.056628
C      -2.205044   -0.510892   -1.227025
O      -2.285143   -1.960466   -1.262021
C      -1.525570   -2.084814   -0.049617
C      -0.308663   -2.888492   -0.218538
N       0.656278   -3.513996   -0.334853
H       0.776232    1.814593   -0.308537
H       0.558277   -0.406401   -0.934840
H       0.642137   -0.255109    0.830183
H      -1.844517   -0.118035    0.932539
H      -3.196459   -0.056945   -1.133822
H      -1.701608   -0.109281   -2.112668
H      -2.119544   -2.530319    0.758061
