19

C      -0.485737    1.403627   -0.127455
C      -0.093954   -0.042122    0.061677
N       1.307961   -0.419524   -0.186267
C       0.763335   -0.572465    1.162519
C       1.378512    0.224523    2.287336
C       0.683698    0.173139    3.644107
C       1.977498   -0.554848    3.457078
C       2.054660    1.453844    1.956292
N       2.606091    2.447771    1.740815
H       0.308870    2.082323    0.184060
H      -0.699963    1.599003   -1.183564
H      -1.390346    1.634297    0.445753
H      -0.849379   -0.750040   -0.281808
H       1.384982   -1.314000   -0.660710
H       0.512800   -1.580257    1.495073
H       0.679868    1.077236    4.240374
H      -0.234592   -0.402454    3.683913
H       1.960846   -1.635810    3.371391
H       2.868526   -0.149249    3.920305
