16

O      -0.136442    0.206269    0.775456
C      -0.103434    1.282343    0.223267
N      -1.186369    2.053634   -0.146025
C      -0.862187    3.430266   -0.470208
C       0.684428    3.406120   -0.395883
C       1.433625    3.824715    0.898875
C       1.983425    2.370172    0.950870
N       1.057864    1.986928   -0.154278
H      -2.111594    1.739603    0.091043
H      -1.212524    3.705735   -1.471762
H      -1.294317    4.144299    0.244571
H       1.137362    3.807638   -1.306189
H       2.165266    4.628943    0.801051
H       0.756552    4.056103    1.725999
H       3.029738    2.274807    0.649206
H       1.819434    1.796738    1.865970
