15

N      -0.047211    1.363918   -0.131071
C      -0.020424    0.002364   -0.023387
N      -1.172550   -0.660383   -0.001055
C      -1.103246   -2.000796    0.059051
N      -2.305412   -2.668496    0.135982
H      -3.103098   -2.158548   -0.207483
H      -2.263324   -3.643991   -0.111767
N       0.005249   -2.743609    0.092230
C       1.156048   -2.053223    0.078568
C       1.215668   -0.680087    0.024654
O       2.360435    0.081061    0.011761
H       0.791356    1.862562    0.116202
H      -0.927366    1.806160    0.078866
H       2.075666   -2.639264    0.112066
H       3.124971   -0.498761    0.089543
