18

C       0.064473    1.585695    0.003762
C       0.017210    0.046647    0.072719
C       0.843089   -0.494055    1.256451
O      -1.321430   -0.456972    0.068630
C      -2.143648   -0.099120    1.173528
C      -3.456464   -0.701610    0.990094
C      -4.548222   -1.184990    0.866865
C       0.593265   -0.492326   -1.180139
N       1.086423   -0.889293   -2.145713
H       1.087920    1.922466   -0.178701
H      -0.572632    1.945967   -0.806987
H      -0.270521    2.025406    0.946807
H       0.506699   -0.050458    2.197175
H       0.747544   -1.580428    1.317084
H       1.898184   -0.241844    1.124862
H      -1.711782   -0.451163    2.121534
H      -2.252666    0.992300    1.251504
H      -5.511713   -1.616458    0.750101
