18

C       0.489784    0.558265    0.477912
O      -0.500225    0.468326   -0.535630
C      -1.553809   -0.369520   -0.315207
C      -2.057769   -0.870215    0.994094
C      -1.652463   -1.919759   -0.043870
C      -2.746905   -2.019939   -1.115921
C      -2.615467   -0.489642   -1.400614
C      -0.652268   -2.891997    0.223144
N       0.176996   -3.677302    0.423498
H       1.266630    1.216853    0.086539
H       0.084345    0.991207    1.401222
H       0.930055   -0.421925    0.698797
H      -1.370638   -0.795570    1.829333
H      -3.107186   -0.779862    1.271488
H      -2.451573   -2.633169   -1.967860
H      -3.718178   -2.363570   -0.747639
H      -3.507018    0.128060   -1.259337
H      -2.194120   -0.291731   -2.387383
