23

C      -0.236420    1.538793    0.010478
C       0.064566    0.040916    0.002627
C       0.895169   -0.522943   -1.182752
C       2.232476    0.253866   -1.295651
C       3.068850    0.156325    0.003326
C       2.232386    0.240309    1.303189
C       0.895093   -0.535300    1.182099
C       1.154548   -1.942514    0.659561
C       1.154601   -1.935541   -0.674919
H       0.658108    2.166068    0.013463
H      -0.826401    1.814980   -0.870910
H      -0.825871    1.805823    0.895040
H      -0.895867   -0.489226   -0.000181
H       0.357126   -0.487648   -2.135952
H       2.823759   -0.131694   -2.134367
H       2.013281    1.300781   -1.534963
H       3.597569   -0.801382   -0.001650
H       3.842659    0.931808    0.007397
H       2.823621   -0.153955    2.137883
H       2.013140    1.284668    1.553378
H       0.356980   -0.509954    2.135576
H       1.382770   -2.789056    1.297574
H       1.382871   -2.775367   -1.321730
