23

C       0.164255    1.328539   -0.350445
C       0.023204   -0.101601    0.178572
O       0.529765   -0.214714    1.509802
C      -1.401807   -0.644482    0.074817
C      -2.416826    0.070228    0.956981
C      -1.984466   -1.144837   -1.225969
C      -0.955373   -1.867630   -2.108260
C      -0.661192   -2.856616   -0.933400
C      -1.692611   -2.119373   -0.071375
H       1.208787    1.646943   -0.293011
H      -0.165840    1.395549   -1.392008
H      -0.435324    2.035607    0.234515
H       0.689554   -0.741105   -0.405243
H       0.077827    0.439376    2.052704
H      -2.518524    1.128517    0.694138
H      -3.406218   -0.386087    0.858213
H      -2.136098    0.004530    2.014334
H      -2.941210   -0.774516   -1.578583
H      -1.423200   -2.372617   -2.956249
H      -0.120296   -1.270894   -2.489419
H      -0.975507   -3.874742   -1.173187
H       0.362388   -2.898361   -0.548531
H      -2.393021   -2.606444    0.597984
