20

C      -0.419961   -1.144247   -0.637024
C      -0.281154    0.015292   -0.353468
C      -0.095434    1.426438   -0.028099
C       1.371797    1.826750    0.082636
C       1.774149    2.981381    0.936770
N       2.169068    1.622038    1.290325
C       1.587930    1.023843    2.459805
C       1.952482   -0.405488    2.748086
C       2.529570    0.706204    3.591768
H      -0.547725   -2.169852   -0.879795
H      -0.558414    2.041654   -0.811138
H      -0.630277    1.667018    0.897060
H       1.932114    1.639886   -0.831745
H       2.571926    3.654527    0.633285
H       0.988518    3.450910    1.529353
H       0.584219    1.344646    2.744439
H       1.194455   -1.050194    3.177650
H       2.612711   -0.887566    2.037169
H       3.571853    0.959356    3.437593
H       2.171361    0.830267    4.607712
