15

N      -0.124389    1.488736    0.026045
C      -0.041179    0.039747   -0.055391
C      -1.430702   -0.596576    0.009244
O      -1.305740   -1.998342   -0.186096
C      -0.837416   -2.276138   -1.457038
O       0.452682   -1.708903   -1.741192
C       0.763670   -0.477734   -1.263260
O       1.682228    0.134912   -1.734461
H       0.817804    1.867154   -0.019939
H      -0.592949    1.847372   -0.803061
H       0.516552   -0.319602    0.820295
H      -1.887872   -0.438026    0.986677
H      -2.093263   -0.160995   -0.757838
H      -0.713754   -3.356364   -1.543353
H      -1.531925   -1.905692   -2.228231
