21

C      -0.004983    1.570768   -0.116062
C       1.556617    1.489492    0.013561
C       1.343281    0.191301    0.818495
C       2.020346   -1.181746    1.044327
C       1.036918   -1.290744    2.268715
C       1.146274    0.261107    2.353800
C      -0.395783   -1.584039    1.846126
C      -0.948885   -0.873537    0.855487
C      -0.014687    0.026269    0.102738
H      -0.447064    2.116156    0.721498
H      -0.420862    1.953033   -1.050779
H       2.022342    1.310847   -0.961126
H       2.076007    2.312213    0.511663
H       1.934068   -1.922312    0.244103
H       3.058591   -1.118986    1.384819
H       1.355002   -1.890559    3.122397
H       2.070395    0.586126    2.843447
H       0.291307    0.802763    2.764648
H      -0.963004   -2.322851    2.404928
H      -1.979186   -1.015944    0.541265
H       0.174875   -0.418544   -0.886711
