23

C      -1.633755    1.366250   -1.626488
C      -1.782706   -0.134623   -1.367423
C      -1.602801   -0.515041    0.106497
O      -2.576294    0.107989    0.940175
C      -1.583715   -2.035076    0.300964
C      -1.966708   -2.639893    1.625215
C      -2.868942   -2.799106    0.416732
O      -0.595399   -2.693797   -0.448770
C       0.719213   -2.582838    0.066643
H      -1.823598    1.607253   -2.676714
H      -2.331295    1.941879   -1.011282
H      -0.621715    1.709000   -1.383777
H      -2.775687   -0.479331   -1.692745
H      -1.060384   -0.704703   -1.960194
H      -0.646093   -0.110320    0.462513
H      -3.437467   -0.019788    0.527557
H      -1.416395   -3.515690    1.950201
H      -2.287941   -1.967850    2.411507
H      -3.809338   -2.258520    0.405477
H      -2.895694   -3.767393   -0.068730
H       1.347756   -3.246875   -0.531801
H       1.118399   -1.562289   -0.012764
H       0.769497   -2.893768    1.118875
