15

O       0.497324    0.864391   -0.690583
C       0.127836   -0.194031    0.111707
C      -0.022193   -0.043064    1.644680
C      -1.223131   -1.018591    1.603490
C      -1.391054   -0.730119    0.064564
C      -2.285897    0.393240   -0.186572
N      -2.917124    1.347340   -0.353049
C      -1.668959   -1.860945   -0.806738
N      -1.837747   -2.789486   -1.473563
H      -0.067005    1.624910   -0.500949
H       0.776310   -1.033716   -0.148143
H       0.838579   -0.316597    2.255197
H      -0.338956    0.970565    1.907775
H      -0.930641   -2.058995    1.751205
H      -2.091898   -0.792482    2.219710
