13

N      -0.101732    1.306909    0.024313
C      -0.045679   -0.060539    0.034709
N      -1.099266   -0.859772   -0.109288
N      -0.521334   -2.058736    0.042913
C      -1.249428   -3.306069   -0.045534
C      -1.700213   -3.604602   -1.410365
N      -2.065519   -3.860896   -2.474656
N       0.782353   -2.013866    0.258343
N       1.109826   -0.749210    0.260712
H       0.782819    1.751379   -0.169907
H      -0.879366    1.699765   -0.483559
H      -0.571870   -4.089148    0.302114
H      -2.115806   -3.263779    0.620903
