17

O      -0.000863    1.430624    0.057289
C       0.012534    0.013213    0.024162
C      -1.425414   -0.484919    0.032782
C      -1.430984   -2.013883   -0.087164
C      -0.568834   -2.536810   -1.213915
N      -0.882745   -3.579294   -1.858302
O       0.628368   -1.900988   -1.426044
C       0.693860   -0.480990   -1.254601
H       0.903313    1.742955    0.165572
H       0.543070   -0.398442    0.898074
H      -1.932831   -0.165315    0.947317
H      -1.956304   -0.026021   -0.810273
H      -1.036413   -2.447155    0.842285
H      -2.437306   -2.412648   -0.220330
H      -0.155708   -3.793227   -2.545020
H       0.225252    0.020650   -2.112725
H       1.760830   -0.237117   -1.258155
