21

C      -0.448919    1.259870   -0.215765
C      -0.143506   -0.175335    0.153919
C       1.157386   -0.887893   -0.187222
C       2.356300   -0.024237   -0.397037
C       2.708432    0.622897    0.716591
C       1.839355    0.234688    1.898075
C       1.324937    1.407366    2.734864
O       2.458842    2.030743    3.326968
C       0.763749   -0.657675    1.269491
H       0.449198    1.880351   -0.233974
H      -0.903208    1.304433   -1.212412
H      -1.159188    1.707201    0.488623
H      -1.010255   -0.824712    0.042858
H       1.108257   -1.864583   -0.657755
H       2.845405    0.074443   -1.360133
H       3.508743    1.346496    0.812621
H       2.439471   -0.373312    2.592435
H       0.767169    2.116025    2.108251
H       0.633487    1.028644    3.504401
H       2.159408    2.810447    3.803111
H       0.390995   -1.479843    1.870383
