21

C       0.056350    1.468215    0.291327
C       0.336715   -0.031520    0.160298
C       0.656474   -0.500497   -1.276951
C       1.987403    0.063114   -1.787955
C       0.606949   -2.032718   -1.324143
C       1.582924   -2.861253   -2.066397
O       1.687679   -2.716101   -0.653905
C      -0.703440   -2.607562   -1.097296
C      -1.805520   -3.058236   -0.930571
H       0.926533    2.079987    0.034113
H      -0.770262    1.774821   -0.359860
H      -0.223089    1.718429    1.319461
H       1.170555   -0.317604    0.813127
H      -0.537494   -0.585840    0.518833
H      -0.150865   -0.148999   -1.933922
H       2.132452   -0.138695   -2.853131
H       2.020417    1.147407   -1.658913
H       2.827142   -0.368481   -1.234063
H       1.272392   -3.845382   -2.413182
H       2.368538   -2.385799   -2.648040
H      -2.773915   -3.466449   -0.776713
