19

C       0.128688    1.547376   -0.068650
C       0.100937    0.045809    0.029530
C      -1.246954   -0.736617    0.116395
C      -0.459643   -1.825383    0.839198
C       0.929675   -1.901288    0.187797
C       0.623990   -0.856089    1.234660
C       0.979341   -0.833931   -0.912310
C       0.543459   -1.150844   -2.319466
O      -0.300630   -0.548670   -2.936836
H       1.150934    1.936268    0.000081
H      -0.290267    1.868147   -1.028377
H      -0.460285    2.008804    0.731315
H      -1.935181   -0.233953    0.802650
H      -1.761546   -0.967854   -0.819748
H      -0.839589   -2.660463    1.413856
H       1.558177   -2.775874    0.293969
H       1.102902   -0.630921    2.176621
H       2.002155   -0.433204   -0.969762
H       1.084837   -2.008984   -2.786587
