21

C       0.025880    1.535322    0.008259
C      -0.001574   -0.004796    0.007943
C       0.716199   -0.522660    1.273987
C      -1.470232   -0.483432    0.020857
C       0.691353   -0.561974   -1.218473
C       0.904414   -1.867266   -1.632308
C       1.604894   -1.759430   -2.850376
N       1.822527   -0.491797   -3.188253
N       1.259411    0.209280   -2.183497
H       1.050790    1.922326    0.021779
H      -0.493105    1.950018   -0.862985
H      -0.478607    1.917613    0.900582
H       0.220106   -0.147056    2.175767
H       0.707048   -1.615572    1.312500
H       1.760307   -0.195910    1.295984
H      -2.007818   -0.128217   -0.863582
H      -1.528358   -1.575468    0.031211
H      -1.987375   -0.107556    0.910618
H       0.596404   -2.767033   -1.124540
H       1.958829   -2.552202   -3.493430
H       1.297360    1.213107   -2.216797
