19

C      -0.058873    1.577983   -0.000974
C       0.017220    0.055018    0.024697
C       0.770329   -0.569546   -1.185702
C       1.502684   -1.828533   -0.644368
C       1.613833   -1.512016    0.815551
N       2.241249   -2.005279    1.858226
C       1.797434   -1.235525    2.915009
C       0.896935   -0.282658    2.498417
N       0.801614   -0.468690    1.138719
H       0.944072    2.014945   -0.028689
H      -0.606589    1.909918   -0.888378
H      -0.581226    1.967457    0.878143
H      -1.001701   -0.352799    0.085482
H       0.090147   -0.790703   -2.010925
H       1.506494    0.154976   -1.549246
H       0.910274   -2.738359   -0.802272
H       2.471807   -1.989999   -1.122310
H       2.157122   -1.404093    3.919309
H       0.358335    0.487404    3.024451
