17

C       0.038925    1.479468    0.239160
O       1.332873    2.016338    0.009242
C       1.840144    2.002580   -1.288166
C       1.073040    1.520804   -2.559209
O       2.390834    1.443206   -3.218742
C       2.588571    0.782067   -1.913136
C       1.243242    0.023018   -2.140974
C       0.471368   -0.626975   -1.038054
C      -0.074444   -0.005272    0.005125
H      -0.182064    1.713858    1.284171
H      -0.703757    2.017883   -0.373213
H       2.381934    2.936114   -1.456012
H       0.264968    1.990143   -3.121933
H       3.576527    0.377607   -1.691906
H       1.311149   -0.619079   -3.022213
H       0.354228   -1.704245   -1.125580
H      -0.638136   -0.575229    0.738983
