15

C      -0.039422    1.445506   -0.024972
N      -0.014175   -0.006562   -0.032718
C       0.567909   -0.621628    0.938271
C       0.617257   -2.073053    0.972487
C       1.229444   -2.705601    1.994946
N       1.809867   -1.990923    3.009374
N       1.818617   -0.648745    3.068864
C       1.237631   -0.010006    2.100007
H       0.966849    1.892996   -0.051039
H      -0.573093    1.795816   -0.912899
H      -0.557370    1.862623    0.853230
H       0.155740   -2.628409    0.166324
H       1.303856   -3.782924    2.085041
H       2.271171   -2.443978    3.779476
H       1.273266    1.069099    2.195812
