22

C       0.360980    1.412096   -0.294477
C       0.164872   -0.097370   -0.277765
O       0.992198   -0.857098   -0.750057
N      -0.996818   -0.524977    0.301184
C      -1.367227   -1.921410    0.413483
C      -1.616074   -2.392663    1.860963
C      -2.461128   -3.683440    1.724069
C      -3.001957   -3.691321    0.261021
C      -2.674029   -2.299827   -0.305938
H       1.295436    1.649470    0.220700
H       0.469324    1.739991   -1.331754
H      -0.454621    1.971414    0.171767
H      -1.634264    0.162226    0.670475
H      -0.533316   -2.476131   -0.025173
H      -0.684926   -2.539868    2.413959
H      -2.184352   -1.618502    2.392733
H      -1.856540   -4.573993    1.916033
H      -3.275024   -3.698024    2.453977
H      -2.484847   -4.458178   -0.324955
H      -4.068935   -3.922811    0.209947
H      -3.457449   -1.578451   -0.034763
H      -2.576275   -2.282925   -1.394631
