14

O      -0.068761    1.315308    0.112308
C       0.029378   -0.050888   -0.013964
C       0.814725   -0.932651   -0.975191
N      -0.078943   -2.067798   -0.488779
C      -1.073993   -1.035188    0.021228
C      -0.212057   -0.925903    1.289573
O      -0.454158   -0.329131    2.488976
C       0.412548   -2.220803    0.932150
O       1.017327   -3.112025    1.432094
H       0.815863    1.675012    0.254522
H       0.619765   -0.712147   -2.028486
H       1.883853   -1.102689   -0.807458
H      -2.142574   -1.050889   -0.128181
H      -0.344585    0.625518    2.372906
