16

N       0.225373    1.483998   -0.094413
C       0.061887    0.030516   -0.027340
C       0.696908   -0.600001   -1.265834
O       0.048955   -0.043178   -2.400885
C       0.805231   -0.452887    1.246422
O       2.101486    0.085258    1.294558
C       0.018245   -0.075528    2.446455
N      -0.608931    0.243415    3.363309
H       0.064897    1.783278   -1.050893
H      -0.455638    1.951067    0.495767
H      -0.988290   -0.290605    0.026032
H       1.773049   -0.382961   -1.266758
H       0.564239   -1.691323   -1.224104
H       0.557511   -0.269544   -3.184587
H       0.893693   -1.545379    1.237874
H       1.989968    0.989269    0.947198
