16

O      -0.071021   -0.015691    0.164490
C      -0.017758    1.192860    0.069846
C       1.218749    1.955562   -0.026281
C       1.340666    3.296881   -0.043331
N       2.711984    3.723912   -0.081374
C       3.247851    3.395333    1.332982
C       3.680220    2.029674    0.841292
C       3.475125    2.501312   -0.568443
C       2.601335    1.393926   -0.085668
H      -0.943063    1.810354    0.051384
H       0.562239    4.041180    0.078209
H       4.094154    4.051340    1.545952
H       2.500623    3.474750    2.129578
H       4.466173    1.408848    1.250853
H       4.109478    2.545971   -1.445172
H       2.779082    0.368680   -0.381056
