17

C       0.093660    1.511531    0.068934
C       0.026998    0.008728    0.000176
C       0.004094   -0.661295   -1.219978
N       0.061881   -0.032313   -2.477764
C      -0.020366   -2.070405   -1.163597
N      -0.038760   -2.799018   -2.340703
N      -0.072436   -2.731098   -0.009429
C      -0.074256   -1.983045    1.096424
N      -0.008741   -0.660667    1.168279
H       1.011140    1.898609   -0.391237
H      -0.753250    1.977877   -0.451376
H       0.070354    1.823491    1.113372
H      -0.076242    0.968205   -2.431381
H      -0.596198   -0.434635   -3.137019
H       0.530831   -2.413537   -3.082649
H       0.119200   -3.785582   -2.186268
H      -0.124290   -2.522070    2.039450
