18

C      -0.164792    1.566705   -0.084016
C       0.061827    0.053404   -0.054862
N       0.782867   -0.431759   -1.211505
N       0.143064   -0.557440   -2.433101
C       1.111164   -1.039471   -3.192980
N       0.952077   -1.284427   -4.544901
N       2.316628   -1.226687   -2.577264
C       2.063072   -0.827903   -1.340177
N       2.962750   -0.883950   -0.286419
H       0.784804    2.111259   -0.070613
H      -0.704289    1.844726   -0.992577
H      -0.753613    1.880210    0.783490
H       0.626251   -0.248771    0.832976
H      -0.898373   -0.470945   -0.024785
H      -0.008676   -1.446460   -4.810422
H       1.575689   -2.001605   -4.885673
H       3.887536   -1.108769   -0.628767
H       2.986955   -0.054251    0.291129
