19

O      -0.398442    1.486476    0.014132
C      -0.197412    0.103501    0.038280
C      -0.476373   -0.742587    1.251783
C      -1.260403   -0.149538    2.412424
C      -2.505676    0.529137    1.791252
C      -2.752520   -0.188033    0.444586
C      -1.410994   -0.803067    0.027007
C      -1.425731   -1.920878   -0.869125
C      -1.453285   -2.860933   -1.620304
H       0.300747    1.896809    0.534320
H       0.622504   -0.239209   -0.592306
H       0.204105   -1.563709    1.450213
H      -1.552585   -0.964459    3.084086
H      -0.667281    0.553002    3.009342
H      -3.375001    0.464937    2.451386
H      -2.301436    1.584672    1.611827
H      -3.472910   -1.004543    0.556643
H      -3.145020    0.490513   -0.317899
H      -1.475970   -3.688234   -2.284933
