14

O      -0.163551    1.330900    0.007871
N       0.004156   -0.067459    0.002532
C      -1.119807   -0.660164    0.008533
C      -2.502741   -0.035713    0.020111
C      -3.403559   -1.246166    0.023294
C      -2.721352   -2.390925    0.015106
C      -1.226467   -2.176558    0.004774
H       0.747198    1.643868    0.002579
H      -2.636610    0.612568    0.896511
H      -2.649152    0.617192   -0.850847
H      -4.484339   -1.163443    0.031397
H      -3.160746   -3.381669    0.015508
H      -0.743258   -2.616176   -0.877412
H      -0.730260   -2.621474    0.877019
