14

O       0.153807    1.527843   -0.013066
C       0.005793    0.157769   -0.086228
C      -1.359175   -0.563214   -0.045282
C      -2.162456   -0.501156   -1.291945
C      -2.200818    0.650049   -2.249870
O      -1.357691    1.510680   -2.358704
N      -0.994168   -1.449357   -1.224451
C       0.228088   -0.635007   -1.401741
O       1.054065   -0.720079   -2.247445
H      -0.234535    1.889584   -0.824190
H       0.643831   -0.286984    0.687809
H      -1.792913   -1.004359    0.845260
H      -3.095547   -1.059264   -1.274438
H      -3.102196    0.669408   -2.893833
