18

O       0.226678    1.001719   -0.533801
C      -0.308614   -0.195893   -0.006458
C      -1.758582   -0.037512    0.425388
O      -2.562730    0.345467   -0.715965
C      -3.178471   -0.647658   -1.388676
O      -3.117697   -1.819018   -1.095195
C      -3.958542   -0.115290   -2.541179
C      -3.838986   -0.874588   -3.826114
N      -5.061656   -0.950836   -3.038376
H      -0.359344    1.281657   -1.245469
H      -0.234149   -1.029147   -0.721924
H       0.296629   -0.455318    0.868726
H      -2.151734   -0.961934    0.852922
H      -1.860831    0.788753    1.132328
H      -4.124249    0.955760   -2.554163
H      -3.917632   -0.327254   -4.760703
H      -3.168182   -1.728709   -3.832225
H      -5.050580   -1.817096   -2.500073
