17

N       0.000041    1.500057   -0.040836
C       0.027142    0.045984   -0.044421
C       0.983183   -0.519913   -1.011343
N       1.745575   -0.922594   -1.783216
C      -0.001560   -0.634175    1.345961
C      -1.522360   -0.311860    1.543834
C      -1.849923   -1.775367    1.902588
C      -0.773580   -1.886521    0.805286
C      -1.350884   -0.656070    0.024627
H       0.924156    1.866906    0.171504
H      -0.237516    1.848061   -0.966102
H       0.779956   -0.623867    2.106253
H      -1.929255    0.613490    1.944015
H      -1.566678   -2.111787    2.904597
H      -2.851902   -2.132642    1.646034
H      -0.322294   -2.771927    0.359112
H      -2.127348   -0.671045   -0.740745
