21

C      -0.264534    1.564034    0.259230
C       0.170844    0.141861    0.056317
C      -0.710590   -1.041431    0.374802
C       0.591208   -0.821636    1.134276
C       1.826379   -1.526536    0.599769
C       1.778062   -1.190202   -0.890563
C       2.895737   -1.414938   -1.851536
C       1.626188   -2.244586   -1.957344
O       1.045146    0.008739   -1.047537
H       0.602743    2.217663    0.396915
H      -0.827372    1.925115   -0.608036
H      -0.907297    1.646607    1.139844
H      -1.631924   -0.842295    0.912148
H      -0.771004   -1.858142   -0.336131
H       0.550585   -0.554206    2.184087
H       2.723331   -1.104969    1.069225
H       1.833562   -2.607398    0.771320
H       3.055086   -0.650644   -2.603827
H       3.800628   -1.889554   -1.486714
H       1.663585   -3.290386   -1.668399
H       0.956151   -2.017046   -2.778897
