18

C       0.062392    1.547414    0.212621
C       1.536686    1.814566    0.012407
C       2.160198    0.779965   -0.574621
C       3.264054    0.083749    0.193578
N       2.973920    0.188896    1.659605
C       2.457175   -0.963006    0.885354
C       1.049417   -1.030542    0.257277
C      -0.012183    0.058925   -0.127988
C       1.134317   -0.260916   -1.032684
H      -0.203043    1.787824    1.249617
H      -0.625138    2.115467   -0.430943
H       2.055740    2.548008    0.618763
H       4.279264   -0.089048   -0.146171
H       3.789819   -0.133488    2.182065
H       2.886954   -1.936851    1.104475
H       0.610739   -2.024970    0.273250
H      -0.993224   -0.370010   -0.319731
H       1.081967   -0.669362   -2.036091
