14

O       0.184359    1.167263   -0.642569
C       0.004848    0.010790    0.160230
C      -1.400863   -0.518853    0.145823
N      -2.090281   -0.850121    1.211075
C      -3.279711   -1.294655    0.687713
N      -3.373988   -1.252917   -0.619739
N      -2.156332   -0.750412   -0.983542
C      -1.806183   -0.528076   -2.339285
O      -2.513868   -0.808149   -3.259797
H      -0.326654    1.886194   -0.254582
H       0.695782   -0.737683   -0.242572
H       0.270727    0.177169    1.210270
H      -4.092103   -1.649972    1.304266
H      -0.816140   -0.054955   -2.412651
