14

C       0.059675   -1.212042   -0.065421
C       0.018783   -0.009872   -0.035599
C      -0.047793    1.398946    0.001847
C      -1.126277    2.257511    0.129122
C      -2.540534    2.806148    0.283919
C      -1.857301    4.229350    0.246129
N      -0.586279    3.479066    0.101321
N       0.752486    3.478073   -0.033514
N       1.072282    2.211386   -0.092354
H       0.103362   -2.272618   -0.091695
H      -3.215997    2.604083   -0.548885
H      -3.036841    2.565194    1.225335
H      -2.092926    4.850985   -0.618861
H      -1.912615    4.811779    1.166930
