22

C       0.473903    1.454317   -1.175064
C       0.362134   -0.011814   -0.777977
N       1.575476   -0.978314   -0.873690
C       2.039676   -0.427998    0.501421
C       2.849761    0.866957    0.563174
C       0.512210   -0.565951    0.665230
O      -0.173730   -0.229055    1.824363
C       0.723853   -1.952732   -0.023097
C      -0.361152   -2.781259   -0.687638
H       1.020250    1.548193   -2.120125
H      -0.533226    1.850327   -1.343117
H       0.952212    2.093469   -0.435977
H      -0.470037   -0.432116   -1.344353
H       2.586926   -1.207352    1.040336
H       2.375023    1.613908    1.206347
H       3.838070    0.659306    0.982480
H       3.005297    1.306545   -0.422969
H      -1.114244   -0.385899    1.684745
H       1.381670   -2.626682    0.534738
H      -1.159810   -2.206070   -1.161121
H       0.083330   -3.425317   -1.453775
H      -0.823033   -3.433429    0.061720
