18

C      -0.134023    1.558020   -0.084684
C      -0.079917    0.031219   -0.102024
C       1.121309   -0.537975   -0.923504
O       1.835999   -0.867126    0.340940
C       0.656567   -0.657358    0.998230
N       0.071289   -1.194208    1.980953
C      -1.357767   -0.853678    1.706986
C      -1.441915   -0.651977    0.140184
O      -2.523247    0.125064   -0.319997
H       0.870069    1.979553    0.018648
H      -0.577444    1.929364   -1.012989
H      -0.747820    1.925063    0.740807
H       0.930257   -1.458389   -1.481136
H       1.693079    0.178068   -1.515644
H      -1.991497   -1.676541    2.051218
H      -1.678651    0.057334    2.228130
H      -1.441863   -1.650505   -0.324657
H      -3.339983   -0.345654   -0.127032
