19

C      -0.022867   -1.187739   -0.287252
C       0.006609   -0.025436    0.017975
C       0.082527    1.387854    0.370038
C       1.465787    1.987338    0.084026
C       1.835084    2.176069   -1.404374
O       1.869193    3.615863   -1.259807
C       1.574793    3.511694    0.133242
C       0.737335    4.529363    0.836632
C       2.226082    4.400618    1.138960
H      -0.063934   -2.215288   -0.551437
H      -0.677035    1.950723   -0.187205
H      -0.160289    1.515913    1.432932
H       2.226679    1.464404    0.667789
H       2.808246    1.775042   -1.707498
H       1.071173    1.854380   -2.121530
H       0.419333    5.386658    0.252959
H       0.024123    4.201792    1.586509
H       2.527572    3.977292    2.092130
H       2.881243    5.176068    0.756871
