19

C       0.249393    1.529150    0.175749
C      -0.145832    0.063347   -0.040799
C       0.550867   -0.540035   -1.243568
C       1.855890   -1.239778   -1.184264
O       2.042483   -1.971589    0.016481
C       0.907478   -2.833544   -0.291466
C       0.578674   -2.041387   -1.550116
C       0.188560   -2.621324   -2.834628
O      -0.084712   -3.788609   -2.999484
H       1.327053    1.624713    0.342311
H      -0.011244    2.145509   -0.691641
H      -0.263660    1.946796    1.046983
H       0.109886   -0.515563    0.851252
H      -1.231337   -0.015675   -0.174015
H       0.441147    0.031913   -2.166129
H       2.732828   -1.012219   -1.780970
H       1.245720   -3.847986   -0.518230
H       0.166953   -2.851911    0.513965
H       0.163436   -1.895917   -3.680622
