22

C       0.244365    1.724167   -0.069535
C       1.711009    1.296208   -0.164941
N       2.003926    0.536452    1.078125
C       1.343839   -0.138681   -0.064274
C      -0.161522    0.207606    0.022440
C      -0.925583   -0.308430    1.257536
C      -1.706996   -1.572064    0.791522
C      -1.354482   -1.752533   -0.704877
C      -0.961200   -0.341071   -1.166642
H      -0.001098    2.349864    0.792914
H      -0.131043    2.193466   -0.983070
H       2.510484    1.775836   -0.716271
H       2.990974    0.281097    1.045842
H       1.791507   -1.011749   -0.526736
H      -0.234141   -0.504841    2.080112
H      -1.620338    0.461254    1.610562
H      -1.453751   -2.459111    1.378605
H      -2.784388   -1.418036    0.909753
H      -0.496497   -2.427023   -0.813140
H      -2.172966   -2.183897   -1.288101
H      -1.859503    0.272582   -1.317037
H      -0.395478   -0.326243   -2.104515
