13

O       0.070581    1.361053    0.168697
C       0.056842    0.024099    0.020091
C       0.082145   -0.789378   -1.091737
O       0.079330   -0.304009   -2.373819
C       0.029490   -2.113758   -0.574034
C       0.016985   -3.355540   -1.354715
O      -0.012291   -4.476886   -0.908238
N      -0.011132   -2.104238    0.766269
N      -0.004131   -0.802167    1.092698
H       0.118207    1.749174   -0.714154
H       0.735823   -0.772503   -2.899406
H       0.031672   -3.178963   -2.456218
H      -0.036805   -0.529219    2.061871
