19

C      -0.052926    1.463770    0.033329
N       0.016921    0.017167   -0.062910
C       0.652071   -0.656261    0.811928
C       0.725114   -2.156571    0.712769
C      -0.017445   -2.707051   -0.497920
O       0.139597   -4.119596   -0.456622
N       1.309477   -0.043603    1.901279
C       2.036336   -0.601141    2.932662
O       2.262038   -1.771798    3.112383
H       0.939266    1.940343   -0.013033
H      -0.636217    1.850975   -0.805185
H      -0.546735    1.803754    0.957587
H       1.772493   -2.474146    0.682064
H       0.328145   -2.607041    1.628351
H      -1.074903   -2.412693   -0.454752
H       0.397787   -2.277186   -1.419621
H      -0.322826   -4.489813   -1.213586
H       1.238357    0.962372    1.934742
H       2.407398    0.193115    3.611186
