20

C      -0.124466    1.594586   -0.097148
C      -0.030110    0.093529    0.126606
C       0.522598   -0.790414   -0.997818
N       1.950858   -0.406531   -1.177446
C       1.573675   -1.368771   -0.115795
C       2.183670   -2.740583   -0.074721
O       2.264888   -3.327239   -1.368757
C       1.138556   -0.463070    1.050989
O       2.104438    0.435775    1.517949
H       0.794022    1.982434   -0.544350
H      -0.955024    1.837373   -0.768744
H      -0.289303    2.118931    0.849120
H      -0.985510   -0.305122    0.484074
H      -0.020271   -1.247403   -1.817933
H       2.318859   -0.973562   -1.941921
H       3.215078   -2.682851    0.292140
H       1.625625   -3.380186    0.625454
H       1.369664   -3.552216   -1.642709
H       0.756219   -1.008266    1.917733
H       2.557315    0.755082    0.724630
