19

C      -0.203396    1.467746    0.060384
C      -0.009573   -0.007351   -0.066125
C       0.174478   -0.827320   -1.160170
C       0.223865   -0.424287   -2.595235
O      -0.881068   -1.010742   -3.289860
C       0.288068   -2.172491   -0.679327
C       0.181416   -2.133215    0.687722
N       0.276323   -3.117159    1.694869
N       0.003431   -0.818698    1.051329
H       0.603738    1.948457    0.629121
H      -0.230117    1.936026   -0.925560
H      -1.146730    1.713651    0.564580
H       0.203408    0.672907   -2.683203
H       1.171268   -0.762531   -3.046378
H      -0.756069   -0.837862   -4.228653
H       0.396706   -3.059770   -1.284520
H       0.680329   -3.966004    1.318158
H      -0.632648   -3.359656    2.080679
H       0.001455   -0.500798    2.005487
