13

N      -0.047491    1.365262   -0.076538
C      -0.052441    0.096374   -0.101347
N       1.151878   -0.652399   -0.057231
N       1.595974   -1.932248   -0.060421
N       0.876254   -2.963403   -0.115871
C      -0.509371   -3.002927   -0.184440
C      -1.476957   -2.061424   -0.212854
C      -1.398904   -0.605531   -0.180337
O      -2.403292    0.070041   -0.215726
H       0.894474    1.759462   -0.023189
H       1.968825   -0.056264   -0.005695
H      -0.838970   -4.037857   -0.221116
H      -2.502770   -2.412997   -0.269753
