14

O      -0.044601    1.329014   -0.013996
C      -0.009002   -0.045926   -0.061708
C       0.930490   -0.802814   -0.963368
C       0.425895   -2.025619   -1.120053
N      -0.787913   -2.192643   -0.326126
C      -1.266306   -0.798980   -0.032305
C      -0.489724   -0.798937    1.283033
C      -0.304808   -2.250581    1.098201
O       0.033113   -3.199329    1.731771
H       0.781073    1.649517    0.365522
H       1.830865   -0.386555   -1.391905
H       0.827207   -2.882970   -1.640301
H      -2.279415   -0.478640   -0.238962
H      -0.626335   -0.215068    2.182681
