22

C      -0.066145    1.541575    0.175877
N       0.020905    0.107733   -0.058576
C      -1.239347   -0.445298   -0.557695
C      -1.050645   -1.789038   -1.283876
C      -1.115042   -3.058502   -0.413934
C      -0.465307   -2.927581    0.984130
C       0.789971   -2.068776    0.966381
O       1.898571   -2.543476    0.887008
C       0.585819   -0.553815    1.115438
H       0.920108    1.931258    0.446692
H      -0.391767    2.047530   -0.738037
H      -0.769317    1.812590    0.987405
H      -2.009462   -0.525929    0.236261
H      -1.625869    0.280969   -1.279263
H      -1.807754   -1.875564   -2.070768
H      -0.081178   -1.733876   -1.791577
H      -2.158162   -3.362165   -0.272926
H      -0.626821   -3.874213   -0.956589
H      -1.184000   -2.478354    1.677738
H      -0.197566   -3.916429    1.364468
H       1.570170   -0.120528    1.311465
H      -0.043100   -0.391997    2.017720
