19

C      -0.134484    1.551563    0.068616
C       0.126036    0.078970    0.019627
C       0.699223   -0.709512   -1.164720
C       1.318770   -1.736727   -0.138774
C       2.769342   -1.805106   -0.168801
N       3.925436   -1.841798   -0.175084
C       0.732076   -0.865391    1.006162
C       1.308976   -0.690987    2.375082
N      -0.728921   -0.899917    0.747216
H       0.719541    2.115060   -0.321328
H      -1.013009    1.816182   -0.531408
H      -0.318630    1.887082    1.094893
H      -0.031274   -1.127462   -1.860381
H       1.472524   -0.166250   -1.710273
H       0.895259   -2.743510   -0.178990
H       2.388405   -0.518248    2.326088
H       0.850043    0.162011    2.886076
H       1.138797   -1.581870    2.990903
H      -1.172673   -0.396280    1.516316
