17

C      -0.230569    1.549434    0.075688
C       0.068384    0.073525    0.009733
C      -0.743079   -0.921320    0.848005
C       0.710996   -0.744805    1.134719
C       1.634520   -1.806507    0.552437
C       1.359132   -1.798391   -0.950152
O       1.717634   -2.600266   -1.767276
C       0.547871   -0.501926   -1.275739
O       0.423485   -0.042660   -2.382082
H       0.651575    2.141733   -0.187160
H      -1.024285    1.810949   -0.630534
H      -0.552321    1.841732    1.079589
H      -1.462675   -0.465376    1.519004
H      -1.083741   -1.849016    0.396956
H       1.006441   -0.235661    2.045068
H       2.688990   -1.538765    0.697033
H       1.492567   -2.805811    0.975068
