19

C       0.059294    1.563063   -0.033607
C       0.018584    0.035090    0.022659
C       0.647220   -0.660496   -1.208762
C       1.203664   -2.027371   -0.723333
O       2.350393   -2.461497   -1.430765
C       1.450867   -1.814949    0.762332
N       2.253121   -0.585225    0.984796
C       0.784598   -0.569709    1.193517
H       1.095903    1.913104   -0.070395
H      -0.459810    1.941386   -0.920349
H      -0.418166    2.008486    0.846209
H      -1.025849   -0.290550    0.125517
H      -0.058352   -0.773079   -2.035466
H       1.487888   -0.065543   -1.578447
H       0.460168   -2.821171   -0.857762
H       3.049446   -1.834876   -1.205503
H       1.598035   -2.666899    1.417973
H       2.714958   -0.649440    1.888197
H       0.411163   -0.441709    2.205450
