13

C       0.022634    1.384903   -0.113820
C       1.504804    1.872704    0.049847
C       2.129612    0.647713    0.640153
C       3.212596    0.040716    1.170997
O       2.928347   -1.254410    1.439592
N       1.590340   -1.542958    1.073094
C       1.175615   -0.397066    0.611249
O      -0.018434   -0.056482    0.103501
H      -0.633674    1.847727    0.629302
H      -0.382171    1.573747   -1.109657
H       1.943750    2.139750   -0.917108
H       1.557046    2.757453    0.689799
H       4.215906    0.350709    1.419161
