24

C      -3.624482   -1.216546   -2.880875
O      -2.627827   -2.087235   -2.404212
C      -1.369248   -1.454136   -2.263478
C      -0.407106   -2.462753   -1.689767
N       0.226249   -3.514070   -2.489552
C      -0.056739   -3.630178   -3.911434
C       1.072612   -2.445318   -1.945796
C       1.714355   -1.399081   -2.842691
C       1.992828   -2.909589   -0.829969
H      -3.784763   -0.364869   -2.200105
H      -3.376482   -0.813668   -3.876356
H      -4.552547   -1.788759   -2.954054
H      -1.039924   -1.054002   -3.232956
H      -1.449697   -0.594999   -1.574217
H      -0.741470   -2.817647   -0.713970
H      -0.098407   -2.686960   -4.474494
H       0.713278   -4.257513   -4.372468
H      -1.022369   -4.130050   -4.030291
H       1.069679   -1.051794   -3.650678
H       2.005410   -0.523916   -2.251595
H       2.627335   -1.802864   -3.295825
H       2.922659   -3.319566   -1.241430
H       2.258367   -2.078528   -0.166237
H       1.512559   -3.691990   -0.238208
