19

O       0.241119    1.299783   -0.337637
C       0.015238   -0.063381   -0.066534
C       0.732575   -0.460002    1.238073
O       0.542369    0.528756    2.241805
C      -0.702443    0.514363    2.934608
C      -1.880262    1.059337    2.115686
C      -2.369313    0.083592    1.058903
O      -2.458107    0.538374   -0.295359
C      -1.474318   -0.438398    0.015510
H       0.409809    1.718044    0.517148
H       0.453634   -0.636741   -0.894009
H       0.400030   -1.448556    1.588644
H       1.813225   -0.494665    1.069275
H      -0.919071   -0.506510    3.286997
H      -0.541326    1.143124    3.815831
H      -2.699892    1.301418    2.802392
H      -1.583739    1.993166    1.628827
H      -3.204859   -0.549925    1.362003
H      -1.690765   -1.434535   -0.378199
