19

C       0.072015    1.539938    0.129981
C      -0.025165    0.026152   -0.096757
C      -1.458893   -0.523821   -0.062629
C      -2.368975    0.065297   -1.138882
C      -1.541819   -2.083160    0.081916
N      -2.131943   -1.866487    1.404106
C      -2.090848   -0.496552    1.361559
O      -2.418947    0.359020    2.142868
H       1.119019    1.849747    0.201434
H      -0.380707    2.102484   -0.692079
H      -0.436927    1.826104    1.054354
H       0.429557   -0.239187   -1.060971
H       0.562928   -0.490080    0.672786
H      -1.938489   -0.076766   -2.136706
H      -3.355978   -0.407923   -1.124241
H      -2.515893    1.136886   -0.980904
H      -2.208496   -2.579799   -0.630782
H      -0.575032   -2.597273    0.101020
H      -2.438732   -2.505840    2.122239
