19

C      -0.138382    1.434124    0.229791
C       0.041841   -0.063963    0.145948
O       0.269949   -0.732763    1.134869
C      -0.045244   -0.724986   -1.235010
C       0.581639   -2.130772   -1.199237
O       1.899241   -2.135410   -0.699888
C      -1.523435   -0.843375   -1.714313
C      -2.125660    0.384375   -2.215765
C      -2.620220    1.391558   -2.647963
H       0.683415    1.924910   -0.305645
H      -1.062098    1.747511   -0.265322
H      -0.132050    1.749596    1.273804
H       0.501129   -0.100788   -1.951354
H      -0.072282   -2.800189   -0.619887
H       0.629532   -2.520895   -2.221956
H       1.819334   -1.938781    0.241632
H      -1.548686   -1.594079   -2.515260
H      -2.134582   -1.254821   -0.900807
H      -3.063811    2.276469   -3.032803
