16

C       0.062810    1.516744    0.020881
C      -0.029785    0.025585    0.033581
C      -1.179292   -0.695292    0.041844
N      -2.451266   -0.145153    0.074120
C      -1.089691   -2.145133    0.075900
N      -2.165297   -2.857429    0.082227
C       0.282390   -2.628614    0.085560
N       1.359606   -1.919212    0.061266
O       1.208405   -0.557457    0.033715
H       0.993120    1.837384    0.495732
H       0.053546    1.921238   -0.999182
H      -0.779144    1.950893    0.567721
H      -2.594222    0.691713   -0.469966
H      -3.152891   -0.858504   -0.089863
H      -1.949879   -3.854804    0.104691
H       0.466808   -3.700706    0.100990
