21

C       0.126302    1.365776   -0.101213
O       0.110933   -0.041742   -0.073076
C       0.607515   -0.581860    1.138278
C       0.573808   -2.103681    1.029970
C      -0.856592   -2.654539    0.944231
N       1.393548   -2.490684   -0.112683
C       1.907895   -3.761387   -0.202866
N       2.482774   -4.053494   -1.437457
O       1.857079   -4.573664    0.704388
H       1.146089    1.764990    0.015787
H      -0.268272    1.679694   -1.070650
H      -0.502680    1.794368    0.694294
H       1.640097   -0.238049    1.310086
H      -0.008447   -0.250061    1.989490
H       1.059378   -2.520913    1.916724
H      -1.378763   -2.241844    0.076572
H      -0.825742   -3.743068    0.862726
H      -1.425869   -2.392681    1.842746
H       1.207089   -1.977348   -0.961002
H       2.906380   -3.289437   -1.943023
H       3.055726   -4.883222   -1.401278
