25

C       0.179641    1.521980   -0.004488
C       0.041516   -0.002836   -0.008091
C      -1.416818   -0.476402   -0.013450
C      -1.549828   -2.003335   -0.027440
C      -2.995926   -2.539422    0.062871
C      -3.835221   -2.182147   -1.170410
C      -2.941278   -4.036376    0.323554
C      -3.910320   -5.024998   -0.166423
O      -2.626622   -4.891150   -0.782037
H       1.230269    1.828839    0.000256
H      -0.292124    1.964186   -0.889126
H      -0.299202    1.961291    0.877902
H       0.557879   -0.415962   -0.884625
H       0.554625   -0.420089    0.868549
H      -1.931253   -0.073365    0.870834
H      -1.925464   -0.042810   -0.883640
H      -1.080996   -2.409585   -0.933507
H      -0.975474   -2.409773    0.816492
H      -3.464232   -2.088822    0.951206
H      -3.471211   -2.725028   -2.048053
H      -4.890104   -2.433528   -1.025661
H      -3.786154   -1.112110   -1.385000
H      -2.397055   -4.300683    1.233822
H      -4.064611   -5.946187    0.394777
H      -4.753374   -4.713799   -0.778928
