18

C       0.077501    1.468032   -0.010242
N      -0.279394    0.074367    0.221648
C       0.486950   -0.661704    1.108426
C       0.770715   -1.992865    1.077410
N       0.452924   -2.990112    0.164199
O       1.495175   -2.271625    2.245159
C       1.608951   -1.084134    2.867231
C       2.362129   -1.034416    4.148473
N       1.033485   -0.094348    2.250939
H       1.049640    1.599940   -0.511331
H      -0.697289    1.934295   -0.624529
H       0.120953    1.987765    0.948236
H      -0.457833   -0.449751   -0.624630
H      -0.193263   -3.685536    0.525440
H       1.265678   -3.471636   -0.207234
H       1.912730   -1.695846    4.896662
H       3.400590   -1.354099    4.010022
H       2.352174   -0.011502    4.525671
