18

C      -0.133089    1.564930    0.020708
C       0.039119    0.062844   -0.046166
C       0.702386   -0.688038   -1.189663
C       1.649833    0.096381   -2.097194
N       2.683711    0.578186   -1.185583
C       2.623777    0.047448    0.069097
O       3.469278    0.097809    0.942252
C       1.322212   -0.700066    0.190634
O       1.364782   -1.787261    1.046588
H       0.738475    2.100131   -0.364287
H      -1.005972    1.881821   -0.561180
H      -0.289096    1.888029    1.055088
H      -0.801303   -0.496489    0.360436
H       0.205889   -1.558275   -1.600355
H       2.079316   -0.554050   -2.869590
H       1.149060    0.931899   -2.601906
H       3.500624    1.081347   -1.493329
H       2.124181   -1.618217    1.624795
