15

C       0.003828    1.492908    0.017510
N      -0.015428    0.031438   -0.044806
C      -0.033190   -0.686665    1.159225
O      -0.033463   -0.161820    2.244005
C      -0.016659   -0.664904   -1.247644
O      -0.032920   -1.880004   -1.309057
C       0.003553    0.151425   -2.537708
O      -0.000426   -0.697499   -3.642370
H       0.903872    1.896055   -0.453927
H      -0.878760    1.920026   -0.465682
H       0.000487    1.761896    1.073017
H      -0.046582   -1.769585    0.985910
H      -0.869688    0.823558   -2.549153
H       0.895055    0.799247   -2.536847
H      -0.015457   -1.596232   -3.274518
