20

C       0.007976    1.464579   -0.116914
C       0.041458   -0.033109    0.045547
N       0.086199   -0.624995    1.178111
O       0.063464    0.278208    2.248418
C       0.042575   -0.923404   -1.198002
C       0.015518   -2.420277   -0.839846
C      -1.129566   -0.560920   -2.125436
C       1.380578   -0.648499   -1.896023
O       1.513728   -0.065652   -2.940090
H       0.639378    1.936727    0.638676
H       0.341065    1.765583   -1.111767
H      -1.008531    1.846298    0.031947
H       0.128666   -0.308670    3.009405
H      -0.879928   -2.655323   -0.260384
H       0.010221   -3.021885   -1.754233
H       0.878955   -2.706215   -0.234756
H      -1.096033    0.484187   -2.437439
H      -1.090359   -1.171175   -3.031768
H      -2.082439   -0.747893   -1.621839
H       2.260601   -1.036949   -1.333826
