16

C      -0.059642    1.388580   -0.123175
C       0.002593   -0.099561    0.135344
O       0.969425   -0.754350   -0.770830
C       1.801559   -1.075988    0.334332
C       0.821684   -0.538447    1.348312
C       1.049309   -2.049834    1.219435
O       0.087201   -2.894587    0.680210
C       1.813504   -2.638231    2.293566
N       2.440780   -3.083147    3.157188
H       0.928135    1.846614   -0.021984
H      -0.431267    1.577891   -1.134226
H      -0.742379    1.864092    0.589027
H      -0.981206   -0.570656    0.043409
H       2.877634   -1.037653    0.213629
H       0.963747    0.006301    2.271577
H       0.145652   -2.788477   -0.280105
