14

O       0.122055    1.414136    0.018163
C       0.081238    0.001508    0.071474
C      -1.340162   -0.543669   -0.168063
C      -1.388866   -2.032230   -0.099835
N      -1.658506   -2.781883   -1.136881
O      -1.577145   -4.088040   -0.630278
C      -1.264221   -3.962824    0.658068
N      -1.130679   -2.741256    1.061775
H      -0.334263    1.755755    0.793733
H       0.745811   -0.350992   -0.723588
H       0.468611   -0.386878    1.023760
H      -2.010253   -0.138315    0.600243
H      -1.701842   -0.210547   -1.143371
H      -1.156949   -4.873358    1.229534
