18

O       0.019611    1.145063    0.498875
C       0.054293   -0.149545   -0.073330
C      -1.305987   -0.858323   -0.197200
O      -1.881766   -1.318514    1.021488
C      -1.987920   -0.490917    2.097419
N      -2.734935   -0.853030    3.049017
C      -2.282479   -0.025401   -1.011735
C      -3.700724    0.108072   -0.673253
O      -2.772502    1.167856   -0.383058
H      -0.700003    1.641336    0.091403
H       0.496405   -0.124965   -1.083285
H       0.714237   -0.752725    0.557899
H      -1.120390   -1.781318   -0.761076
H      -1.377314    0.410001    2.032934
H      -2.688150   -0.162578    3.796325
H      -1.982245    0.111268   -2.052651
H      -4.415529    0.335896   -1.461153
H      -4.090746   -0.412949    0.196321
