23

C       0.469009   -0.650074    1.190861
O      -0.014062   -0.178348   -0.046972
C       0.737963   -0.505248   -1.237249
C       0.738047   -2.020001   -1.488975
C      -0.096185    0.195913   -2.329215
O      -1.451950   -0.193758   -2.268526
C       2.171827    0.010936   -1.141197
C       2.833234    0.849821   -2.213154
C       2.485556    1.463715   -0.884102
H       0.465022   -1.746667    1.257476
H       1.483600   -0.288257    1.402762
H      -0.204844   -0.257919    1.957184
H      -0.285602   -2.381376   -1.606261
H       1.292216   -2.240100   -2.406740
H       1.221728   -2.568270   -0.675617
H       0.002532    1.287158   -2.221217
H       0.276114   -0.083998   -3.318602
H      -1.687504   -0.124363   -1.334229
H       2.842273   -0.693053   -0.655295
H       3.875320    0.647636   -2.434919
H       2.253604    1.151901   -3.077305
H       1.653754    2.158144   -0.847903
H       3.287588    1.697258   -0.192592
