20

C       0.358094    1.118843    0.363000
O      -0.327902    0.066655   -0.300985
C       0.414897   -0.536253   -1.292352
C       1.399017   -1.665899   -0.928309
C       1.559445   -2.048059    0.441567
N       1.702414   -2.356700    1.548473
C       0.073504   -1.939759   -1.669776
C      -1.041344   -2.642632   -0.921424
C       0.208636   -2.327806   -3.129791
H       1.252470    0.749866    0.879478
H       0.650330    1.908797   -0.343872
H      -0.336234    1.533072    1.096024
H       0.762654    0.138636   -2.077745
H       2.309679   -1.731956   -1.515456
H      -1.108767   -2.309240    0.114152
H      -2.001586   -2.436744   -1.406045
H      -0.883266   -3.725943   -0.929509
H       0.419959   -3.397933   -3.229290
H      -0.721179   -2.116723   -3.669265
H       1.015545   -1.778812   -3.625096
