17

O       0.007867   -0.031330   -0.244040
C       0.094800    1.170036   -0.355787
C       1.315525    1.961486   -0.078001
C       1.182341    3.323218   -0.106868
C       2.167537    4.288512    0.298229
C       3.503108    4.113141    0.237298
C       4.134797    2.933506   -0.454817
C       3.754870    1.676715    0.291827
C       2.487949    1.239048    0.373283
H      -0.777966    1.780783   -0.681472
H       0.190899    3.708892   -0.342925
H       1.784154    5.223512    0.700543
H       4.156487    4.861364    0.677860
H       3.769461    2.873509   -1.489053
H       5.220130    3.046062   -0.498079
H       4.549706    1.100964    0.757674
H       2.282855    0.266403    0.811417
