25

C       0.011804    1.583942    0.119573
C      -0.004767    0.048951    0.014542
C       0.771160   -0.543963    1.206965
C      -1.453614   -0.469147    0.041907
C       0.676840   -0.433442   -1.287654
C       0.043547   -0.018713   -2.625424
C       1.251907   -0.041907   -3.571435
C       2.370637    0.466811   -2.655792
O       2.028041    0.049845   -1.335640
H       1.033214    1.963732    0.035217
H      -0.596723    2.058613   -0.657034
H      -0.392759    1.902050    1.086281
H       0.322263   -0.231297    2.155921
H       0.760918   -1.639538    1.177249
H       1.813712   -0.216692    1.192595
H      -2.057804   -0.031899   -0.759742
H      -1.489906   -1.559491   -0.064577
H      -1.932651   -0.214573    0.993292
H       0.711957   -1.535989   -1.245751
H      -0.757207   -0.694456   -2.933306
H      -0.372206    0.992362   -2.566206
H       1.461351   -1.066652   -3.896701
H       1.121255    0.574804   -4.464107
H       3.355404    0.060203   -2.912378
H       2.439771    1.564583   -2.688633
