23

C       0.029038    1.570926   -0.109437
C      -0.006181    0.040930   -0.097087
C      -1.422468   -0.532391    0.059477
O      -2.287116   -0.095323   -0.986986
C      -1.413226   -2.038156    0.189629
C      -1.530853   -2.981677   -0.977200
C      -2.569695   -3.036100    0.113292
C      -2.022616   -3.804912    1.320402
C      -0.831161   -2.793654    1.397415
H       1.044302    1.943842   -0.274621
H      -0.616534    1.967634   -0.897677
H      -0.326581    1.979000    0.843154
H       0.427084   -0.357934   -1.026127
H       0.620542   -0.344906    0.716453
H      -1.868850   -0.110908    0.971664
H      -1.850582   -0.294627   -1.822677
H      -1.881771   -2.542002   -1.905423
H      -0.821465   -3.796732   -1.109688
H      -3.613402   -2.839886   -0.100313
H      -2.668370   -3.747429    2.199416
H      -1.767707   -4.855742    1.145547
H       0.178043   -3.200416    1.273156
H      -0.853643   -2.201108    2.316393
