19

N       0.137142    1.406911   -0.178151
C      -0.009258    0.007981   -0.056696
C      -1.085787   -0.841656   -0.180643
C      -0.608694   -2.181168   -0.008826
C      -1.421732   -3.439779   -0.078223
C      -1.841244   -3.793072   -1.506243
O      -2.622119   -4.978879   -1.452729
C       0.744416   -2.093087    0.220720
N       1.099267   -0.762355    0.185819
H      -0.656280    1.803128   -0.667138
H       0.195761    1.866852    0.726579
H      -2.109487   -0.539647   -0.348032
H      -0.853446   -4.282564    0.330476
H      -2.331799   -3.353065    0.528007
H      -2.411645   -2.956906   -1.940790
H      -0.941428   -3.929865   -2.126402
H      -2.881898   -5.206858   -2.349829
H       1.475522   -2.861313    0.415999
H       2.033109   -0.394550    0.238295
