17

C      -0.264526    1.435384    0.153204
C       0.037974   -0.049576   -0.002804
N       0.904267   -0.424513   -1.150986
C       1.958926   -1.049680   -0.334842
C       1.136623   -0.638780    0.872528
N       1.239190   -0.686743    2.129201
O       2.436860   -1.303076    2.516044
C       0.600638   -0.691707   -2.444434
O       1.324284   -1.296149   -3.207400
H       0.655504    2.024632    0.116765
H      -0.932097    1.780351   -0.642101
H      -0.755072    1.611994    1.114907
H      -0.890896   -0.635268    0.026318
H       2.060696   -2.129017   -0.494645
H       2.946052   -0.584632   -0.423698
H       2.385597   -1.272052    3.477783
H      -0.385104   -0.274439   -2.735705
