18

C       0.095992    1.473870   -0.356577
C      -0.032123    0.063751    0.229920
C      -1.438715   -0.484746    0.098898
O      -2.432416    0.232844    0.766854
C      -1.925999   -1.091823   -1.181051
C      -1.645868   -2.000003    0.015738
O      -0.497547   -2.793524    0.005839
C      -2.765438   -2.565218    0.735350
N      -3.636460   -3.050656    1.321813
H       1.102382    1.870341   -0.195283
H      -0.097246    1.471739   -1.434312
H      -0.621548    2.154583    0.109103
H       0.667133   -0.625561   -0.249573
H       0.233693    0.076539    1.295871
H      -2.288644    0.146260    1.717018
H      -2.959972   -0.916859   -1.452967
H      -1.223479   -1.185863   -2.001790
H      -0.653309   -3.546294   -0.576747
