15

C       0.046230    1.493500   -0.232844
C       0.041412   -0.032199   -0.028788
C       0.661123   -0.795490   -1.216167
O      -0.131489   -0.559826   -2.377031
C       0.479399   -0.109458   -3.496565
O      -0.113018    0.097629   -4.509105
C       0.756002   -0.408193    1.194393
N       1.338739   -0.705655    2.146823
H       1.068309    1.870015   -0.335095
H      -0.516157    1.744335   -1.134565
H      -0.418404    1.997016    0.617459
H      -0.995005   -0.375668    0.074574
H       1.695793   -0.468730   -1.379385
H       0.664659   -1.870740   -1.016235
H       1.567782    0.039713   -3.358455
