15

C       0.102946    1.355656    0.111034
O       0.111492   -0.075565    0.006302
C       0.662152   -0.556482   -1.123619
O       1.124279    0.124715   -2.005328
C       0.624652   -1.999654   -1.139803
C       0.625936   -3.201993   -1.226239
C       0.612247   -4.636046   -1.285723
C       0.097655   -5.345019   -2.478041
O       1.491519   -5.267534   -2.228222
H       1.122270    1.748919    0.087822
H      -0.464085    1.798268   -0.711669
H      -0.371719    1.576008    1.066735
H       0.551089   -5.144480   -0.324754
H      -0.356964   -6.325546   -2.344334
H      -0.263792   -4.761191   -3.321887
