24

C       0.659259    1.133727    0.081893
C       0.089804   -0.282566    0.185782
C      -1.424609   -0.339514   -0.024911
O      -1.678554    0.120266   -1.347482
C      -3.017471    0.470419   -1.609489
C      -1.948019   -1.754938    0.161124
N      -1.924646   -2.298036    1.529193
C      -3.217196   -2.145465    0.844653
C      -4.208143   -1.184786    1.456848
H       1.745614    1.131831    0.213681
H       0.431888    1.569731   -0.893992
H       0.232523    1.787813    0.850947
H       0.564343   -0.932151   -0.560980
H       0.302543   -0.713496    1.169549
H      -1.908692    0.333465    0.700972
H      -3.050033    0.879649   -2.622821
H      -3.696472   -0.392591   -1.558947
H      -3.382575    1.236923   -0.908196
H      -1.624236   -2.414715   -0.644813
H      -1.617895   -3.266319    1.527170
H      -3.672817   -3.058281    0.459618
H      -3.708880   -0.305314    1.868923
H      -4.945038   -0.854056    0.716886
H      -4.749464   -1.670864    2.275753
