19

C      -0.121395    1.723729   -0.307493
C       0.025619    0.236114    0.055712
C      -1.309219   -0.503550    0.153476
C      -2.075062   -0.211188    1.425038
O      -1.574454    0.321573    2.395350
C      -3.539415   -0.625096    1.486584
O      -4.089333   -0.379861    2.745108
C       0.978817   -0.453782   -0.900080
O       0.782004   -1.516225   -1.432968
H       0.856454    2.209604   -0.386383
H      -0.638162    1.848297   -1.265346
H      -0.691856    2.245954    0.464016
H       0.513446    0.191939    1.041520
H      -1.947308   -0.290171   -0.713147
H      -1.131790   -1.586632    0.110867
H      -4.075167   -0.072260    0.695062
H      -3.614884   -1.691253    1.217547
H      -3.381251    0.052829    3.248679
H       1.924463    0.108211   -1.078596
