22

C      -0.109688    1.424156   -0.330975
C       0.032698   -0.008125    0.132766
N       1.241753   -0.845090   -0.047073
C       2.437842    0.006883    0.300179
C       1.976380    0.176833    1.771504
C       1.947495    1.530165    2.472991
C       0.681230   -0.535740    1.355944
C       0.097090   -1.665473    2.162798
O       1.059745   -2.678397    2.409203
H       0.748923    2.052815   -0.098572
H      -0.258000    1.447792   -1.416282
H      -0.990636    1.878550    0.134503
H      -0.836998   -0.601633   -0.150011
H       3.351949   -0.577652    0.179526
H       2.530031    0.915997   -0.302001
H       2.539067   -0.527987    2.390466
H       1.397705    2.289807    1.911962
H       1.476388    1.442828    3.458458
H       2.965461    1.903444    2.630689
H      -0.229385   -1.305809    3.145998
H      -0.787091   -2.073108    1.648738
H       1.410504   -2.918795    1.542368
