15

C       1.044013    1.097296    0.050981
N       0.361683    0.130587   -0.821175
C      -0.319206    0.597722    0.398428
C      -0.547875   -0.413399    1.450285
C      -0.135051   -1.721524    1.474671
N      -0.589854   -2.221712    2.675252
C      -1.252330   -1.214191    3.309495
N      -1.246590   -0.109359    2.600563
H       1.902597    0.700151    0.584640
H       1.144652    2.127907   -0.280320
H      -0.020835    0.601499   -1.636024
H      -1.127967    1.317535    0.295245
H       0.411088   -2.316086    0.763459
H      -0.468265   -3.162518    3.009906
H      -1.716251   -1.346683    4.275589
