24

C      -0.065110    1.496456   -0.320331
C       0.149308    0.015161   -0.101424
C       1.514562   -0.577239   -0.093296
N       0.722684   -0.523003    1.135953
C       1.155180    0.385994    2.197493
C       1.681162   -0.437207    3.395714
C       2.426559    0.470168    4.372601
C       0.528425   -1.174555    4.092731
O       2.643972   -1.380532    2.921468
H       0.792550    2.092159    0.001590
H      -0.228995    1.695006   -1.384714
H      -0.949084    1.852928    0.220459
H      -0.661793   -0.603509   -0.484845
H       1.700123   -1.566356   -0.505191
H       2.355501    0.110227   -0.176922
H       1.947451    1.073263    1.864566
H       0.299876    0.992225    2.518696
H       1.773064    1.264571    4.746587
H       2.788161   -0.109793    5.226416
H       3.290670    0.928559    3.882861
H      -0.031995   -1.770826    3.366635
H       0.926101   -1.839985    4.864074
H      -0.167709   -0.472484    4.564647
H       2.184255   -1.917745    2.265012
