22

C      -0.575806    1.953382   -0.250044
C      -0.776020    0.488117   -0.625943
C      -1.896237   -0.196162    0.146036
O      -2.644862    0.416835    0.877054
C      -2.001417   -1.710383   -0.032002
C      -1.487176   -2.450375    1.250069
C      -2.980412   -2.683584    1.584941
N      -3.309176   -2.342212    0.192517
C      -4.562910   -1.701579   -0.145518
H       0.214196    2.406070   -0.855624
H      -1.498162    2.519851   -0.398917
H      -0.302043    2.053112    0.803906
H      -1.010548    0.381490   -1.695173
H       0.143693   -0.097043   -0.483597
H      -1.525441   -2.001387   -0.977870
H      -0.944316   -3.364800    1.008693
H      -0.911722   -1.854229    1.958934
H      -3.279508   -3.693648    1.889469
H      -3.359978   -1.960030    2.320658
H      -4.750366   -0.767619    0.403080
H      -4.581567   -1.481898   -1.219329
H      -5.381682   -2.401065    0.058557
