17

N       0.325410    0.188647    0.937349
C      -0.165665    0.194712   -0.326515
O       0.180173    0.970615   -1.195946
C      -1.266503   -0.855973   -0.587357
N      -0.943036   -2.203377   -0.162771
C      -0.698031   -3.445653   -0.911386
C      -0.493882   -4.146345    0.462835
C      -0.749212   -2.754337    1.071234
O      -0.758845   -2.259059    2.177940
H       1.029633    0.869612    1.170415
H      -0.007820   -0.459919    1.642144
H      -2.183186   -0.525229   -0.081476
H      -1.453363   -0.860400   -1.661133
H      -1.560180   -3.786647   -1.492990
H       0.187744   -3.408056   -1.552848
H      -1.242878   -4.896049    0.722609
H       0.505082   -4.543028    0.650379
