13

N       0.051951   -1.078919   -0.542763
C       0.013422    0.022383   -0.196635
C      -0.003350    1.413731    0.253564
C       1.381035    2.036438    0.175773
N       1.750334    2.636662   -1.098022
C       1.566427    3.518872    0.070505
C       0.438274    4.419288    0.033409
N      -0.470334    5.133837    0.038604
H      -0.700071    1.987129   -0.365130
H      -0.373338    1.448387    1.284585
H       2.147908    1.511235    0.740965
H       2.739489    2.521858   -1.300632
H       2.445018    3.936803    0.554315
