19

C      -0.028215    1.559060   -0.029483
C       0.025515    0.044750   -0.025309
N      -1.203375   -0.533296   -0.514761
C       1.343482   -0.642923   -0.256128
O       2.470188    0.142674   -0.464852
C       0.704449   -0.672427    1.158631
C       1.343949    0.113775    2.293574
C       0.141936   -1.937700    1.546196
N      -0.310633   -2.964946    1.833627
H       0.931343    2.012778    0.216109
H      -0.307431    1.901988   -1.031929
H      -0.794463    1.911587    0.665851
H      -1.265280   -0.427975   -1.523206
H      -1.274986   -1.522569   -0.301193
H       1.314577   -1.583842   -0.805103
H       3.248735   -0.355336   -0.190836
H       1.998619    0.890707    1.897145
H       0.585625    0.581819    2.927381
H       1.945660   -0.548767    2.922338
