25

C      -0.899611    0.861538    0.692347
C      -0.019895   -0.264710    0.143893
C       0.705842   -1.047394    1.242533
C       1.642483   -2.130396    0.703713
O       2.677656   -1.596339   -0.117899
C       2.263707   -2.979526    1.815686
O       1.238598   -3.637251    2.523610
C       1.713513   -4.461636    3.568771
C       0.524114   -5.115750    4.250800
H      -0.305185    1.593166    1.251656
H      -1.411567    1.397126   -0.113345
H      -1.665288    0.472467    1.372992
H      -0.635867   -0.959620   -0.441987
H       0.721613    0.142669   -0.552331
H       1.295655   -0.354585    1.864943
H      -0.015194   -1.522838    1.916843
H       1.077157   -2.800770    0.044938
H       3.143662   -0.929025    0.398579
H       2.962508   -3.701892    1.364795
H       2.852563   -2.332281    2.493282
H       2.398436   -5.226606    3.165490
H       2.293257   -3.861761    4.291073
H      -0.041883   -5.721237    3.537235
H       0.860581   -5.763111    5.066125
H      -0.146668   -4.356945    4.663770
