17

O       0.525900   -0.072906    0.975696
C      -0.184394    0.481049   -0.124842
C      -1.513318   -0.204442   -0.193248
N      -2.300715   -0.497991    1.046620
C      -1.936182   -1.605674    0.141097
C      -2.996523   -1.606897   -0.979582
C      -2.496816   -0.199456   -1.316050
N      -2.624004    0.623438   -2.269307
O      -3.592836    0.182730   -3.191693
H       1.307880    0.463204    1.132949
H      -0.335097    1.564294   -0.000285
H       0.353264    0.329807   -1.072977
H      -1.596331   -0.494007    1.787714
H      -1.322050   -2.431418    0.473975
H      -2.798517   -2.306840   -1.795846
H      -4.033799   -1.699824   -0.650551
H      -3.582635    0.887923   -3.847519
