19

C      -0.104760    1.793199    0.200265
C      -0.064294    0.297476   -0.034691
C       1.217245   -0.357785   -0.457171
C       0.689332   -0.602161    0.951243
C       1.359135   -0.060216    2.095143
C       1.915914    0.389433    3.062910
C      -1.351863   -0.265991   -0.565564
C      -1.567102   -0.540839   -1.993211
O      -1.328788   -1.603147   -1.063305
H       0.812304    2.140259    0.680805
H      -0.225794    2.331414   -0.746287
H      -0.942367    2.066874    0.852112
H       1.160609   -1.199695   -1.137327
H       2.096219    0.268803   -0.554840
H       0.242844   -1.580856    1.101439
H       2.410447    0.779390    3.917459
H      -2.230379   -0.036157    0.041194
H      -2.572252   -0.505149   -2.409621
H      -0.758748   -0.353415   -2.697942
