22

C      -0.080398    1.591596    0.040742
C       0.017152    0.064685    0.076539
C      -1.232866   -0.561140   -0.533965
N       1.187611   -0.787847   -0.338774
C       2.538763   -0.326861    0.145240
C       2.672753    0.956611    0.902613
C       2.098303   -0.258398    1.592052
C       0.714321   -0.755327    1.103440
C       0.160080   -1.958921    1.817050
H       0.518800    2.016827   -0.770219
H      -1.120386    1.873711   -0.148061
H       0.212432    2.062139    0.979753
H      -1.414742   -0.117796   -1.518897
H      -1.122073   -1.636673   -0.672326
H      -2.111501   -0.365410    0.091405
H       3.386665   -0.827528   -0.305757
H       3.702099    1.135616    1.206163
H       2.136503    1.864405    0.681663
H       2.566106   -0.690424    2.467755
H      -0.115822   -1.686241    2.843488
H      -0.723068   -2.372056    1.328004
H       0.917107   -2.749249    1.877079
