17

C      -0.055331   -1.172281    0.105873
C      -0.076220    0.029065    0.054668
C      -0.074737    1.457359   -0.024619
O      -1.010699    2.180979    0.787887
C      -0.665131    3.314639   -0.065874
C       0.761672    3.626071    0.426539
C       1.326743    2.278741   -0.060840
C       1.141784    2.395694   -1.595033
C      -0.358387    2.343999   -1.272315
H      -0.044840   -2.233092    0.155358
H      -1.428240    4.089659   -0.091994
H       1.239890    4.479852   -0.061639
H       0.770413    3.762621    1.509220
H       2.233021    1.881427    0.390018
H       1.555040    3.280390   -2.086872
H       1.451528    1.493646   -2.128986
H      -1.152972    2.127919   -1.983279
