18

C       0.054505    1.307510    0.328811
O      -0.026125   -0.003493   -0.205001
C      -1.301642   -0.548395   -0.146814
C      -1.772758   -1.161099    1.158758
C      -1.424984   -2.039144   -0.034150
N      -2.495083   -2.422419   -0.906215
C      -3.145923   -1.362010   -1.498216
O      -4.161123   -1.429863   -2.150674
C      -2.346018   -0.090438   -1.154448
H       1.101307    1.611445    0.264278
H      -0.557718    2.019452   -0.242020
H      -0.265780    1.335081    1.379740
H      -1.053724   -1.143384    1.970716
H      -2.814580   -1.079137    1.452164
H      -0.545919   -2.671845   -0.012267
H      -2.965411   -3.312325   -0.840782
H      -3.033051    0.680281   -0.796514
H      -1.858213    0.285957   -2.059816
