17

C       0.012394    1.540792    0.023870
C       0.045501    0.010895    0.009891
O       0.707263   -0.531514    1.145420
C      -1.339036   -0.564028   -0.105781
C      -1.830692   -2.032859   -0.051902
C      -3.091464   -1.161973    0.143618
O      -2.292009   -0.266984    1.023143
C      -2.578892   -0.240026   -0.994846
O      -2.931681    0.435239   -1.903627
H       1.026716    1.931055    0.133457
H      -0.422445    1.927364   -0.903141
H      -0.597428    1.901459    0.858500
H       0.622175   -0.338326   -0.855234
H       0.165301   -0.318641    1.914667
H      -1.746340   -2.646639   -0.952241
H      -1.519218   -2.548814    0.856682
H      -4.089773   -1.432601    0.478801
