14

N      -0.106324    1.321345    0.074466
C      -0.034347    0.052052    0.003726
N       1.069151   -0.804222   -0.098042
C       0.750533   -2.238461   -0.007775
C      -0.746262   -2.187856   -0.004591
C      -1.155324   -0.896669    0.000227
O      -2.479539   -0.790954   -0.000429
N      -2.997950   -2.096158   -0.006242
C      -1.961844   -2.910586   -0.011936
H       0.819965    1.751091    0.064129
H       1.983479   -0.470974    0.159865
H       1.163479   -2.789723   -0.862253
H       1.160867   -2.688948    0.906505
H      -2.149044   -3.974919   -0.017604
