21

C       0.129809    1.584946    0.061006
C       0.144664    0.047122   -0.002543
C       0.721315   -0.480061   -1.231750
C       1.198301   -0.916346   -2.252406
C       1.752422   -1.445622   -3.485595
O       1.718162   -2.632811   -3.736608
C       2.373808   -0.414409   -4.428347
C       3.622259    0.209163   -3.772111
C       2.685650   -1.030231   -5.792832
H       1.144225    1.987136   -0.004867
H      -0.454440    2.002669   -0.763084
H      -0.313636    1.920209    1.002798
H       0.706438   -0.356627    0.849745
H      -0.876185   -0.341898    0.103581
H       1.628301    0.385114   -4.543314
H       3.387234    0.644136   -2.797058
H       4.402490   -0.546368   -3.630892
H       4.028853    0.998885   -4.410759
H       1.789112   -1.454609   -6.251877
H       3.095292   -0.271446   -6.466579
H       3.416020   -1.838084   -5.695696
