17

C       0.157168    1.494203    0.216539
C      -0.135986    0.016438   -0.076726
C       0.553095   -0.466747   -1.320264
C       0.194819   -0.095868   -2.775439
C       0.530558   -1.574766   -3.134200
O       0.349226   -2.237566   -4.114555
C       0.941893   -1.888695   -1.718402
N       1.935118   -0.892106   -1.262063
H       1.230908    1.655787    0.352142
H      -0.180797    2.138036   -0.602502
H      -0.352678    1.818685    1.128146
H       0.196142   -0.601612    0.763955
H      -1.216734   -0.136728   -0.184562
H      -0.867869    0.093787   -2.958534
H       0.784371    0.704432   -3.233013
H       0.878228   -2.830714   -1.186650
H       2.502167   -0.530196   -2.027058
