21

C      -0.097789    1.390088   -0.021539
C       0.066035   -0.111760    0.079790
C       1.436268   -0.676480   -0.211240
C       0.867691   -0.675449    1.219699
C       0.788466   -2.188145    1.187820
C       1.036915   -3.164528    2.292157
C      -0.330942   -3.076712    1.649628
C       1.446365   -2.209474   -0.215110
O       0.829962   -2.917579   -1.264312
H       0.802225    1.908349    0.326090
H      -0.280873    1.700727   -1.055898
H      -0.938740    1.738632    0.587411
H      -0.814281   -0.674332   -0.234352
H       2.213222   -0.048100   -0.631432
H       1.183958   -0.073112    2.063242
H       1.650682   -4.034374    2.077769
H       1.148528   -2.778835    3.300858
H      -1.141018   -2.637939    2.223504
H      -0.627469   -3.880638    0.982928
H       2.467650   -2.598451   -0.162660
H      -0.048501   -2.544039   -1.393704
