23

C      -0.328539    1.589323   -0.031626
C      -0.108422    0.074974    0.005655
C       0.744782   -0.426483   -1.166571
C       0.906876   -1.943105   -1.220914
O      -0.399627   -2.507154   -1.347767
C       1.815347   -2.444866   -2.377391
C       2.481442   -3.715736   -1.791860
O       1.928977   -3.892354   -0.482415
C       1.609969   -2.587365   -0.014945
H       0.622173    2.133213    0.010477
H      -0.839698    1.891355   -0.952604
H      -0.939858    1.923633    0.812404
H       0.371671   -0.197821    0.954616
H      -1.070401   -0.446310   -0.014583
H       0.289574   -0.100677   -2.110602
H       1.741888    0.030388   -1.126831
H      -0.304477   -3.454358   -1.189040
H       1.203919   -2.648900   -3.258268
H       2.563927   -1.695083   -2.647768
H       2.276595   -4.626206   -2.360802
H       3.572201   -3.594690   -1.722212
H       2.519475   -2.029668    0.265439
H       0.962976   -2.687120    0.858707
