19

C      -0.078313    1.561542    0.072634
C       0.026214    0.031533    0.023842
C       1.120747   -0.580371   -0.948109
C       1.779268   -1.262283    0.256875
O       2.248643   -2.563089    0.243230
C       2.205337   -0.254179    1.282438
C       0.750646   -0.672435    1.202658
C      -1.285919   -0.556651   -0.210480
C      -2.375512   -1.031325   -0.394886
H       0.899217    2.020220    0.245474
H      -0.474579    1.948228   -0.871015
H      -0.751822    1.876060    0.875310
H       0.684429   -1.297621   -1.643499
H       1.728790    0.145253   -1.499271
H       3.184162   -2.545913    0.013233
H       2.727124   -0.682536    2.132663
H       2.533881    0.744906    1.007459
H       0.241614   -1.127879    2.042510
H      -3.334560   -1.455560   -0.560631
