23

C      -0.002777    1.527731   -0.071561
C       0.111051    0.016769    0.045402
O       0.626589   -0.483450   -1.175559
C       0.700936   -1.894782   -1.268753
C       0.734154   -2.269294   -2.750355
C       0.975785   -3.776631   -2.917013
C       2.200280   -4.208521   -2.108848
O       2.078708   -3.844641   -0.742895
C       1.959023   -2.443920   -0.572200
H       0.978612    1.972808   -0.258753
H      -0.664080    1.798421   -0.899549
H      -0.406660    1.953120    0.852071
H       0.763734   -0.248861    0.891616
H      -0.876277   -0.430802    0.247411
H      -0.184042   -2.352911   -0.796266
H      -0.196408   -1.955794   -3.233764
H       1.547058   -1.702945   -3.223597
H       0.102848   -4.337939   -2.561877
H       1.117466   -4.031685   -3.973410
H       2.325478   -5.295092   -2.123401
H       3.111283   -3.755682   -2.538189
H       2.839744   -1.918785   -0.980383
H       1.928911   -2.268919    0.506709
