14

C       0.003272    1.555382    0.054821
C      -0.021667    0.054053    0.031570
C      -1.166851   -0.675030   -0.110227
O      -2.384158   -0.140932   -0.243202
O      -1.171745   -2.010002   -0.128888
C       0.028946   -2.767451   -0.000827
O      -0.058062   -3.960288   -0.027021
C       1.196943   -1.917624    0.145247
N       1.159544   -0.621958    0.158489
H       0.630610    1.942630   -0.754719
H      -1.000173    1.969642   -0.056154
H       0.427106    1.918984    0.996652
H      -3.023629   -0.861554   -0.326705
H       2.150142   -2.426952    0.248149
