17

C       0.037322    1.549593   -0.035728
C       0.248347    0.034596   -0.080831
C       0.551889   -0.541233    1.306816
N       0.732438   -1.985040    1.292928
C       1.835309   -2.710849    0.991423
C       1.414868   -4.016363    1.075143
N       0.097476   -4.027000    1.415405
N      -0.314686   -2.797237    1.544226
H       0.926125    2.066393    0.343148
H      -0.175981    1.943773   -1.033057
H      -0.803620    1.814748    0.613960
H      -0.643872   -0.464261   -0.474143
H       1.072606   -0.211323   -0.760926
H       1.455796   -0.088220    1.727109
H      -0.274647   -0.343744    1.993856
H       2.783231   -2.254793    0.760061
H       1.970402   -4.927319    0.922276
