19

C       0.119060    1.459743    0.095929
C       0.006711   -0.041656   -0.014495
C       0.661658   -0.723774   -1.262213
C       0.981490   -2.145594   -0.705181
O       2.370604   -2.392655   -0.595768
C       0.328365   -2.044793    0.711016
O       0.718257   -0.704544    1.056834
C      -1.178347   -1.917508    0.556155
C      -1.382117   -0.679107    0.112937
H       1.168169    1.768659    0.070538
H      -0.400142    1.943502   -0.737155
H      -0.323664    1.812797    1.031586
H       0.005750   -0.726713   -2.134963
H       1.598507   -0.231019   -1.536193
H       0.574537   -2.956946   -1.311430
H       2.711013   -1.724918    0.012948
H       0.716286   -2.765141    1.430276
H      -1.893094   -2.717255    0.693596
H      -2.305348   -0.211952   -0.203710
