21

C       0.091821    1.597722    0.055272
C       0.043946    0.065417   -0.017067
C       0.778400   -0.532533   -1.199213
C       1.623214   -1.516830   -0.878779
C       2.483718   -2.316380   -1.806942
C       1.642969   -1.751066    0.613222
C       2.765679   -1.013785    1.380367
O       1.878046    0.076536    1.700929
C       0.728667   -0.634752    1.177645
H       1.123122    1.943425    0.151842
H      -0.344710    2.039572   -0.846113
H      -0.471779    1.969232    0.917303
H      -1.013277   -0.240406   -0.047389
H       0.612107   -0.178868   -2.212991
H       2.365769   -1.994255   -2.844967
H       3.545499   -2.227893   -1.543110
H       2.239083   -3.385135   -1.752097
H       1.465465   -2.790231    0.903970
H       3.117276   -1.527869    2.285045
H       3.631100   -0.684063    0.792827
H       0.034788   -0.893958    1.985263
