20

C       0.327079    1.533365    0.070621
C       0.029251    0.069916    0.004229
C      -0.242227   -0.657683   -1.085539
C      -0.388475   -2.100803   -0.747749
N       0.858713   -2.694750   -0.167296
C      -0.208160   -2.210363    0.727000
C      -0.939908   -3.208346    1.598445
O      -1.189559   -4.442587    0.941094
C       0.042663   -0.798388    1.255105
H       1.345315    1.714027    0.438161
H       0.234236    2.007663   -0.910121
H      -0.349759    2.046823    0.765991
H      -0.301225   -0.270827   -2.096491
H      -1.041822   -2.753394   -1.319149
H       0.750643   -3.710235   -0.205994
H      -0.322276   -3.460064    2.469270
H      -1.869679   -2.759737    1.980334
H      -1.885030   -4.293512    0.292600
H       1.001415   -0.731662    1.783685
H      -0.735506   -0.484184    1.966367
