15

C       0.040309   -1.214851   -0.034132
C       0.033354   -0.010752   -0.010317
C       0.008299    1.409895    0.044695
C       0.277306    2.283734   -1.162689
C       1.176374    2.429389    0.024312
C       0.492006    3.259976    1.113427
C      -0.697667    2.246543    1.131330
H       0.047915   -2.275879   -0.061363
H       0.701225    1.761930   -2.013481
H      -0.429803    3.070239   -1.419586
H       2.236060    2.214044   -0.036243
H       1.040164    3.264868    2.057462
H       0.256547    4.293971    0.841278
H      -1.685859    2.629665    0.858631
H      -0.775455    1.713680    2.080173
