20

C       0.087147    1.594920    0.081940
C       0.127205    0.082477    0.067979
C       1.337513   -0.766830   -0.215676
C       1.445561   -1.837506   -1.258355
N       2.555956   -0.170520    0.359694
C       1.994783   -0.120260    1.649988
O       2.417789    0.311714    2.686117
C       0.715438   -0.801906    1.184409
C      -0.052136   -1.858263    1.923260
H       1.017087    2.028451    0.459179
H      -0.083488    1.987495   -0.926619
H      -0.725363    1.955085    0.721187
H      -0.787150   -0.367065   -0.322115
H       1.748612   -1.421168   -2.226297
H       2.186210   -2.589122   -0.968544
H       0.480816   -2.333259   -1.402469
H       3.054071    0.612849   -0.050508
H      -0.575773   -1.428108    2.783727
H      -0.802982   -2.326808    1.278863
H       0.610479   -2.644651    2.298988
