22

C      -0.234273    1.429875   -0.217796
C      -0.026596   -0.046786    0.019408
N       1.348303   -0.561764   -0.142471
C       0.707198   -0.653670    1.162106
C       1.223457   -0.084256    2.499351
C       1.040422    1.377612    2.879174
C       0.337074   -1.148606    3.216096
C       0.243351   -1.932150    1.879722
O      -0.954469   -2.561777    1.496276
H       0.623812    2.007452    0.129958
H      -0.356988    1.623545   -1.289147
H      -1.132565    1.795126    0.292153
H      -0.820851   -0.680270   -0.378201
H       1.341921   -1.470723   -0.601527
H       2.280791   -0.357254    2.600198
H      -0.001032    1.694995    2.763856
H       1.322693    1.536056    3.925961
H       1.665157    2.035444    2.266977
H       0.750416   -1.666690    4.083671
H      -0.638662   -0.727665    3.486387
H       1.011553   -2.712004    1.823460
H      -1.664412   -1.915684    1.578781
