20

C      -0.049110    1.575389    0.025163
C       0.010366    0.045242   -0.026657
N       0.730382   -0.465718   -1.181271
C       0.090507   -0.712821   -2.385988
O      -1.096125   -0.564232   -2.587841
C       1.176334   -1.193115   -3.355479
C       2.425390   -1.148656   -2.521646
C       2.118169   -0.727399   -1.287147
C       3.017219   -0.545149   -0.110419
H       0.951306    2.015532    0.082252
H      -0.546237    1.963737   -0.867584
H      -0.615317    1.902262    0.903187
H       0.468312   -0.355685    0.882428
H      -1.003902   -0.357510   -0.095740
H       0.920106   -2.194109   -3.722761
H       1.197582   -0.536292   -4.233194
H       3.414052   -1.421470   -2.858580
H       4.045946   -0.777182   -0.393513
H       2.990740    0.482156    0.270647
H       2.737518   -1.204949    0.719431
