16

C      -0.137004    1.594731   -0.177957
C       0.115497    0.091187   -0.067274
N       0.784475   -0.452483   -1.230574
N       0.143046   -0.511611   -2.473359
C       1.046457   -1.031054   -3.232354
N       0.978766   -1.241804   -4.581402
O       2.212526   -1.337249   -2.620677
C       2.044514   -0.953207   -1.269453
O       2.886908   -1.087080   -0.425981
H       0.805804    2.143483   -0.257550
H      -0.743732    1.817927   -1.059337
H      -0.670405    1.950732    0.708475
H       0.765917   -0.140915    0.779826
H      -0.828695   -0.447702    0.070062
H       0.037901   -1.213720   -4.946738
H       1.520855   -2.027385   -4.911115
