19

C      -0.134870    1.579623    0.002714
C      -0.050767    0.056842   -0.004325
C      -1.390347   -0.591461   -0.344306
C       1.199773   -0.574703   -0.655337
C       2.151579   -0.227021    0.530150
C       2.564154   -1.690505    0.604662
N       1.092971   -1.841616    0.241438
C       0.762597   -0.607104    1.128868
H       0.822278    2.049952    0.245880
H      -0.452780    1.953901   -0.977015
H      -0.872846    1.922782    0.736643
H      -1.737477   -0.267662   -1.332386
H      -1.310232   -1.680210   -0.344616
H      -2.157408   -0.299070    0.382178
H       1.463324   -0.674302   -1.711924
H       2.737956    0.683198    0.690359
H       3.243845   -2.077792   -0.162074
H       2.815784   -2.109527    1.584945
H       0.508812   -0.745044    2.183534
