19

C      -0.189451    1.535494    0.183441
C       0.019739    0.048528    0.081299
C      -1.199234   -0.904828    0.022502
C      -0.546117   -1.826737    1.095265
C       0.690415   -0.903782    1.176843
C       1.744978   -1.117352    0.080005
O       1.033434   -0.312131   -0.881527
C       1.125222   -0.396494    2.508011
O       0.514106   -0.556074    3.537363
H       0.755835    2.060794    0.345001
H      -0.626562    1.905103   -0.751620
H      -0.876265    1.778772    0.999715
H      -2.136310   -0.445152    0.347041
H      -1.339677   -1.341216   -0.968381
H      -1.084070   -1.845018    2.044169
H      -0.335074   -2.853473    0.787036
H       2.727307   -0.682395    0.312899
H       1.882745   -2.151932   -0.256213
H       2.071053    0.194150    2.493655
