19

O       0.003132    1.466993    0.015006
C       0.044094    0.044398   -0.036917
C       0.843967   -0.512480    1.122533
C       0.244783   -1.187012    2.103724
C      -1.245852   -1.438372    2.039345
C      -1.553433   -2.675514    1.164629
C      -1.407272   -2.084028   -0.261812
C      -1.373363   -0.551679   -0.015282
O      -1.881714   -0.380104    1.316594
H      -0.462998    1.681993    0.832716
H       0.529404   -0.195770   -0.990448
H       1.907082   -0.291122    1.145154
H       0.800472   -1.596180    2.943162
H      -1.696219   -1.478711    3.033831
H      -0.877410   -3.511754    1.355571
H      -2.577583   -3.010614    1.348647
H      -0.496406   -2.427460   -0.758833
H      -2.251643   -2.360785   -0.896056
H      -2.016426    0.018673   -0.688846
