15

O       0.093483    1.402069    0.138724
C       0.071565    0.036417    0.043738
C       0.066114   -0.765311   -1.080487
N       0.042123   -2.104542   -0.689910
C       0.031419   -2.155506    0.681311
C       0.049717   -0.843174    1.155068
N       0.039612   -0.897065    2.530328
C       0.015322   -2.224859    2.909942
C       0.009302   -3.039513    1.794690
H       0.105087    1.772304   -0.748675
H       0.077840   -0.489964   -2.123102
H       0.030514   -2.883743   -1.320539
H       0.048453   -0.112714    3.155845
H       0.003877   -2.492467    3.954679
H      -0.008538   -4.117861    1.803015
