20

O       0.510709    1.186922   -0.115682
C       0.254993   -0.177795    0.052901
C       0.209997   -0.760146    1.520334
C      -1.251017   -1.123021    1.273775
N      -1.926640    0.155572    0.906420
C      -1.214459   -0.628086   -0.133851
C      -1.832095   -1.094216   -1.398554
C      -3.324614   -1.134179   -1.627568
C      -2.483695   -0.113899   -2.349391
H      -0.213102    1.635862    0.343272
H       0.952784   -0.721862   -0.588490
H       0.863620   -1.626264    1.648785
H       0.392936   -0.035097    2.317532
H      -1.828536   -1.935535    1.697661
H      -2.922100   -0.042204    0.819439
H      -1.271559   -1.895857   -1.873361
H      -3.721490   -1.972086   -2.189636
H      -3.991001   -0.781507   -0.847241
H      -2.557080    0.917581   -2.023736
H      -2.312681   -0.237869   -3.412532
