18

C      -0.028506    1.549447   -0.034349
C       0.041967    0.017943   -0.021629
N       0.670441   -0.574448   -1.203257
C       2.121463   -0.494936   -1.248630
C      -0.097463   -0.705613   -2.337527
N      -1.298613   -0.261821   -2.404413
C       0.464712   -1.550471   -3.469757
O      -0.064257   -1.593763   -4.550743
H       0.965587    2.004156   -0.096041
H      -0.627372    1.890580   -0.880906
H      -0.497660    1.905609    0.888233
H       0.608604   -0.329706    0.850667
H      -0.968966   -0.390307    0.041651
H       2.519714   -0.953798   -2.153217
H       2.477325    0.544743   -1.229241
H       2.551699   -1.015514   -0.385783
H      -1.698116   -0.553222   -3.298178
H       1.344857   -2.184180   -3.242473
