15

N      -0.158741    1.374527    0.007866
C      -0.082463    0.023093    0.317391
O       0.689501   -0.439556    1.125216
N      -1.018994   -0.742196   -0.377368
C      -1.145095   -2.112358   -0.177299
C      -2.096100   -2.876655    0.423614
C      -1.690687   -4.237389    0.236227
C      -0.521408   -4.188181   -0.453497
O      -0.181028   -2.902892   -0.728494
H       0.630848    1.893618    0.361192
H      -0.425633    1.626722   -0.932093
H      -1.784526   -0.266022   -0.827633
H      -2.964809   -2.513048    0.948897
H      -2.195794   -5.125126    0.582742
H       0.168394   -4.938249   -0.802941
