20

C       0.048914    1.503130   -0.333894
C      -0.019394    0.027829    0.006899
C       1.219939   -0.827284   -0.081150
C       0.635892   -0.475261    1.266145
N      -1.247716   -0.626515   -0.380954
C      -2.427562   -0.435853    0.261084
O      -2.553007    0.228510    1.279295
C      -3.655657   -1.126045   -0.347437
O      -4.781402   -0.854488    0.431219
H       1.005003    1.930149   -0.017528
H      -0.053140    1.663789   -1.413090
H      -0.753663    2.043748    0.175618
H       1.108575   -1.849943   -0.425630
H       2.139794   -0.345639   -0.393767
H       1.153906    0.249710    1.883383
H       0.125240   -1.254742    1.817382
H      -1.265725   -1.103266   -1.270180
H      -3.790374   -0.767700   -1.381546
H      -3.463098   -2.209554   -0.407681
H      -4.443160   -0.290579    1.148987
