23

C      -0.073399    1.403566   -0.188105
O      -0.055290   -0.000854   -0.252189
C      -1.295660   -0.582563    0.083525
C      -1.168663   -2.096180   -0.021181
C      -2.469708   -2.815666    0.358859
C      -2.409896   -4.320205    0.153773
C      -1.424024   -5.095274    1.001992
C      -3.587575   -5.013527   -0.390687
O      -2.461758   -4.727683   -1.224494
H       0.922915    1.758188   -0.463672
H      -0.809366    1.837006   -0.884521
H      -0.310848    1.765181    0.825656
H      -1.591082   -0.290222    1.107595
H      -2.088076   -0.215524   -0.592876
H      -0.892404   -2.360516   -1.047617
H      -0.343532   -2.415050    0.625107
H      -2.721080   -2.608495    1.408021
H      -3.292350   -2.419886   -0.247983
H      -1.637728   -4.959978    2.067973
H      -1.475257   -6.161593    0.769416
H      -0.398628   -4.759578    0.819829
H      -3.746832   -6.067979   -0.166039
H      -4.492720   -4.450305   -0.616707
