17

C       0.396780    0.943453    0.849423
C      -0.268246   -0.017039   -0.134686
O      -1.518051    0.487011   -0.618112
C       0.619119   -0.384478   -1.282660
C       1.931736   -0.176496   -1.530317
N       2.226476   -0.767800   -2.755831
C       1.093679   -1.343908   -3.325692
O       0.991724   -1.906557   -4.396834
N       0.117132   -1.108921   -2.366006
H       1.284976    0.492307    1.302394
H       0.701367    1.867515    0.345997
H      -0.308133    1.196307    1.644466
H      -0.557811   -0.929780    0.403333
H      -1.329818    1.287439   -1.122741
H       2.682795    0.311954   -0.934499
H       3.113059   -0.767225   -3.227389
H      -0.856240   -1.309614   -2.517292
