21

C       0.316475    1.436119   -0.109704
C      -0.009744   -0.056647   -0.000895
C      -1.494239   -0.443359    0.066578
C      -2.415516    0.254794    1.105367
O      -3.388912    0.564116    0.088469
C      -2.475651    0.169446   -0.958820
C      -1.606050   -1.955112    0.165660
C      -2.816033   -2.716763   -0.159534
O      -1.695708   -2.697410   -1.052608
H       1.400946    1.581140   -0.126537
H      -0.085300    1.879827   -1.025233
H      -0.076253    2.007530    0.737035
H       0.434032   -0.586854   -0.853675
H       0.485229   -0.464683    0.891184
H      -2.829415   -0.381548    1.896647
H      -1.997944    1.162563    1.559378
H      -2.083589    1.038661   -1.500456
H      -2.924262   -0.520934   -1.679226
H      -0.925532   -2.398296    0.896965
H      -2.997310   -3.669426    0.335718
H      -3.706866   -2.196857   -0.505101
