19

C      -0.068033    1.601149   -0.121207
C       0.071527    0.095879    0.023200
C       1.023947   -0.680035   -0.923598
C       1.427614   -1.598815    0.258969
C       2.866606   -2.066322    0.389002
C       0.861047   -0.508492    1.246317
C       1.875949    0.379405    1.791156
N       2.688298    1.087964    2.211984
H       0.906181    2.096867   -0.073751
H      -0.528882    1.849138   -1.083364
H      -0.697103    2.023384    0.669701
H      -0.916978   -0.374910    0.017604
H       0.589477   -1.150805   -1.808444
H       1.864303   -0.051251   -1.237604
H       0.748614   -2.456403    0.307180
H       3.560775   -1.220621    0.387831
H       3.023955   -2.626986    1.316601
H       3.129533   -2.722814   -0.447369
H       0.250016   -0.882574    2.071961
