16

N      -0.000626    1.312949   -0.273083
C       0.058252   -0.026778   -0.107574
O       1.069798   -0.703114   -0.098991
N      -1.197327   -0.661305    0.041329
C      -1.250909   -2.098529    0.279459
C      -2.754573   -2.354517    0.131330
O      -3.369325   -1.072478    0.361675
C      -2.449998   -0.088272    0.183858
N      -2.707651    1.155396    0.164671
H       0.877553    1.799561   -0.306558
H      -0.887001    1.795750   -0.156009
H      -0.645322   -2.636987   -0.449718
H      -0.878245   -2.345202    1.279988
H      -3.018057   -2.691327   -0.877210
H      -3.153621   -3.059321    0.862004
H      -3.705381    1.318669    0.262737
