19

O      -0.515550    1.419945    0.024384
C      -0.122103    0.094616    0.032860
C      -0.130323   -0.744135   -1.207764
C      -1.048092   -1.137225   -0.045498
C      -0.156451   -1.817961    0.950243
C       0.468529   -2.919461    1.353367
C       1.813100   -2.517325    1.968075
C       2.070221   -1.080773    1.390871
C       0.633501   -0.561645    1.222330
H       0.122690    1.923064   -0.493119
H      -0.653982   -0.281305   -2.039689
H       0.700669   -1.385832   -1.486940
H      -2.121121   -1.199060   -0.172883
H       0.156217   -3.950503    1.236596
H       1.775678   -2.498166    3.067280
H       2.611253   -3.218640    1.700556
H       2.705035   -0.469858    2.038922
H       2.565722   -1.170202    0.417060
H       0.268585   -0.065437    2.132375
