16

C       0.052730    1.392896    0.042397
N      -0.028189   -0.051032    0.050399
N      -0.364213   -0.749023   -1.076583
N      -0.342493   -2.013292   -0.772160
C      -0.008706   -2.164092    0.537590
C       0.113941   -3.450582    1.286969
O       1.056152   -3.302914    2.367986
C       0.197102   -0.906145    1.066674
O       0.562073   -0.488256    2.288807
H       1.049523    1.723362    0.346742
H      -0.148462    1.718194   -0.978106
H      -0.687333    1.827223    0.720243
H      -0.824907   -3.735055    1.775017
H       0.394499   -4.269794    0.614446
H       1.936148   -3.267550    1.976019
H       0.781542   -1.301217    2.778447
