17

O      -0.098809   -0.053849    0.069084
C      -0.028120    1.154518    0.025640
N       1.135591    1.878134   -0.051767
C       1.129256    3.338305   -0.037242
C       2.209513    3.883948   -0.975795
C       3.593305    3.351806   -0.569364
C       3.528860    1.878094   -0.265295
C       2.377990    1.230205   -0.066306
H      -0.916531    1.814980    0.043537
H       0.134372    3.682526   -0.333708
H       1.315263    3.696200    0.985264
H       1.980128    3.567646   -1.999445
H       2.188803    4.977768   -0.958338
H       4.314382    3.537672   -1.374485
H       3.974010    3.906596    0.300498
H       4.453010    1.311971   -0.229610
H       2.303984    0.163857    0.102339
