15

O       0.216417   -0.113054   -0.152608
C       0.141335    1.082204   -0.245648
C       1.336710    2.014230   -0.075038
C       1.298565    3.133947   -1.105645
O       0.304743    3.814272   -1.276053
N       2.444461    3.293653   -1.837710
C       2.559998    4.354188   -2.819824
C       3.632590    5.302161   -2.494235
N       4.495640    6.027118   -2.242043
H      -0.811468    1.607533   -0.457038
H       1.230485    2.492882    0.907658
H       2.257155    1.426145   -0.077571
H       3.255170    2.733501   -1.630858
H       2.739063    3.950901   -3.823423
H       1.595383    4.871033   -2.830883
