17

C      -0.519721    1.473038    0.029863
C      -0.063365    0.013502   -0.001048
C       0.630177   -0.467323   -1.260938
C       1.737083   -1.148354   -0.965916
C       1.954318   -1.134681    0.509785
C       2.229148    0.217811    1.115654
C       2.678314    1.310128    0.289163
N       3.083124    2.207307   -0.319567
N       0.862440   -0.354183    1.109039
H       0.298000    2.166724   -0.171370
H      -1.294290    1.632107   -0.726505
H      -0.948401    1.707575    1.008024
H      -0.955590   -0.608539    0.166451
H       0.247535   -0.270721   -2.255202
H       2.413248   -1.626974   -1.661800
H       2.304734   -2.019525    1.034724
H       2.640853    0.260016    2.121175
