19

C      -0.554804    1.207255   -0.211051
O       0.127276   -0.006357    0.004559
C       0.415115   -0.680377   -1.182161
C       1.201208   -1.948961   -0.870405
O       1.624744   -2.206873    0.228965
C       1.470967   -2.872973   -2.040864
C       2.759293   -3.655620   -1.972021
C       0.306533   -3.403315   -2.783960
O       1.093166   -2.348865   -3.325632
H       0.037660    1.906454   -0.822002
H      -1.523050    1.050187   -0.712620
H      -0.732523    1.655616    0.768911
H      -0.498262   -0.929867   -1.748975
H       1.029363   -0.072449   -1.871355
H       2.798750   -4.220478   -1.038049
H       2.836825   -4.340629   -2.819150
H       3.619884   -2.979962   -1.989816
H       0.407825   -4.369166   -3.276907
H      -0.707104   -3.135720   -2.489686
