16

C      -0.042342    1.569736    0.051434
C       0.006402    0.031853   -0.006316
C       0.683688   -0.474815   -1.196032
C       1.247946   -0.861349   -2.188057
C       1.925233   -1.368016   -3.377773
C       1.973995   -2.905899   -3.435512
H       0.967070    1.990057    0.054109
H      -0.572275    1.973917   -0.815399
H      -0.557605    1.903035    0.957451
H       0.508670   -0.350476    0.891978
H      -1.016023   -0.366459    0.030782
H       1.422955   -0.985700   -4.276067
H       2.947653   -0.969692   -3.414879
H       2.503937   -3.310068   -2.568679
H       0.964588   -3.326232   -3.438179
H       2.489258   -3.239198   -4.341530
