10

N       0.116997   -1.115097   -0.005476
C       0.017215    0.036553    0.002473
C      -0.095825    1.450650    0.012113
N      -1.177030    2.164362    0.030890
C      -0.715691    3.471831    0.032113
C       0.650337    3.461619    0.013858
O       1.058480    2.176886    0.000839
C      -1.577221    4.600289    0.050192
N      -2.255841    5.536370    0.064724
H       1.409743    4.224473    0.008139
