21

C      -0.221944    1.632846    0.063144
C      -0.121339    0.106744   -0.049585
O       0.470997   -0.432559    1.143428
C      -1.530082   -0.517984   -0.050414
O      -2.231160   -0.226672    1.138827
C       0.650623   -0.399286   -1.274854
C       1.242667    0.503471   -2.342567
C       2.138050   -0.219583   -1.373357
O       2.743853    0.487870   -0.319753
H       0.766287    2.083468    0.181364
H      -0.699134    2.065983   -0.821548
H      -0.833365    1.878931    0.933438
H       1.374679   -0.096517    1.182309
H      -2.117925   -0.121434   -0.884764
H      -1.425057   -1.605675   -0.191797
H      -1.614379   -0.437517    1.851638
H       0.302197   -1.367979   -1.623790
H       1.218113    0.174533   -3.375956
H       1.141236    1.573842   -2.206234
H       2.729081   -1.057866   -1.738732
H       3.458706    1.025600   -0.674920
