22

C      -0.080973    1.527424    0.007645
C      -0.049501    0.012604    0.074290
C      -1.262289   -0.651838   -0.548916
N       1.283628   -0.588981   -0.166531
C       0.681077   -0.673850    1.177228
C       1.397884    0.041061    2.323601
C       1.732116   -1.124506    3.259422
O       0.627801   -2.014293    3.133012
C       0.253352   -2.030554    1.766018
H       0.836012    1.961331    0.409750
H      -0.183172    1.861299   -1.031107
H      -0.931829    1.926078    0.571857
H      -1.360478   -0.353896   -1.599245
H      -1.199057   -1.743319   -0.516499
H      -2.184590   -0.354277   -0.036916
H       1.178055   -1.480943   -0.648803
H       2.278040    0.582290    1.972959
H       0.725263    0.744828    2.825528
H       2.668264   -1.617638    2.949716
H       1.818034   -0.848523    4.313173
H      -0.824606   -2.213361    1.720753
H       0.761747   -2.851953    1.231564
