21

C      -0.014259    1.523848    0.031155
C      -0.021749   -0.001086   -0.034972
C      -1.447820   -0.555793    0.072944
C       0.678055   -0.478817   -1.314028
O       0.782103   -1.893984   -1.381682
C       1.187618   -2.513041   -0.195528
C       2.462448   -2.165116    0.537361
C       1.108565   -1.780144    1.112133
O       0.772878   -0.421444    1.093513
H       1.008222    1.907137   -0.027789
H      -0.599771    1.954063   -0.786943
H      -0.446849    1.856468    0.978746
H      -2.074863   -0.167642   -0.736192
H      -1.457090   -1.645951    0.009236
H      -1.890668   -0.256435    1.027071
H       0.112178   -0.181043   -2.201575
H       1.673396   -0.012656   -1.369854
H       0.893994   -3.557323   -0.218922
H       3.024221   -2.973577    0.992614
H       3.062854   -1.340302    0.170924
H       0.741390   -2.297535    1.995784
