16

O      -0.100586    0.034985    0.073418
C       0.046174    1.216625   -0.117987
C       1.331714    1.926479   -0.023110
N       1.364361    3.381499    0.301266
C       1.745543    2.952403   -1.039370
C       3.225431    2.513249   -1.191211
C       3.727335    2.316704    0.256720
C       2.679788    1.188718    0.132224
O       3.072661    1.056487   -1.281887
H      -0.815077    1.878617   -0.380317
H       0.410778    3.748122    0.285620
H       1.138907    3.206096   -1.901589
H       3.812614    2.951766   -1.996638
H       4.735285    1.904592    0.256954
H       3.594299    3.105430    0.993691
H       2.686991    0.254559    0.688040
