22

C       0.037693    1.597693   -0.056747
C       0.042983    0.067551   -0.117888
C      -1.348010   -0.565988    0.048009
C      -2.319936   -0.217912   -1.098299
C      -1.253481   -2.059187    0.192813
N      -0.228007   -2.785714    0.008638
C      -0.637880   -4.174111    0.260248
C      -2.144498   -4.080517    0.616801
O      -2.424129   -2.666128    0.554729
H       1.058371    1.987864   -0.115328
H      -0.528950    2.043913   -0.879887
H      -0.400127    1.958091    0.881487
H       0.475724   -0.271904   -1.065692
H       0.698634   -0.328931    0.663582
H      -1.796295   -0.198254    0.982431
H      -2.501629    0.858724   -1.140954
H      -1.905450   -0.532108   -2.062399
H      -3.279831   -0.720079   -0.958219
H      -0.454413   -4.786582   -0.628993
H      -0.039653   -4.599402    1.073415
H      -2.795711   -4.593324   -0.097252
H      -2.380238   -4.433843    1.624668
