14

O      -0.060215    1.357631   -0.057220
N       0.039594   -0.028189   -0.095627
C      -1.104373   -0.605173   -0.021040
C      -1.109646   -2.109205    0.034526
O      -2.209079   -2.693898   -0.676478
C      -3.437320   -2.116288   -0.604345
O      -4.403352   -2.720159   -0.991849
C      -3.505398   -0.716127   -0.120624
C      -2.408802    0.028288    0.085568
H       0.861084    1.635715   -0.106841
H      -0.199595   -2.518920   -0.404276
H      -1.166895   -2.435318    1.082651
H      -4.508925   -0.315067   -0.045270
H      -2.461084    1.084756    0.318863
