17

O      -0.077118    1.388914   -0.019009
C      -0.023737   -0.026408    0.004030
C       0.426096   -0.638146    1.400743
N      -0.805909   -1.314054    1.871907
C      -1.217464   -2.010863    0.585312
C      -1.459121   -0.589164    0.023095
C      -1.846668   -0.277551    1.490866
C       0.779093   -0.520933   -1.124615
N       1.441511   -0.896091   -1.995176
H       0.822682    1.733184   -0.041176
H       1.245747   -1.353856    1.312711
H       0.712887    0.169133    2.079029
H      -0.452097   -2.646063    0.131352
H      -2.137656   -2.577003    0.739301
H      -2.078201   -0.363192   -0.844843
H      -2.843248   -0.633722    1.757528
H      -1.674564    0.727257    1.878763
