22

C       4.537627   -1.234654    1.357631
O       3.642637   -2.123436    0.732970
C       2.476300   -1.490402    0.262047
C       1.559315   -2.538637   -0.375507
O       0.294510   -1.947547   -0.670633
C       2.184700   -3.157245   -1.606041
C       3.012741   -4.392707   -1.521254
N       1.721788   -4.412502   -2.194205
C       0.629627   -5.143542   -1.564728
H       4.886992   -0.452508    0.664911
H       4.080294   -0.739988    2.229057
H       5.398165   -1.818217    1.693601
H       1.929534   -0.996919    1.081177
H       2.725849   -0.710173   -0.481468
H       1.354402   -3.305361    0.376937
H       0.396509   -1.417087   -1.468877
H       2.456802   -2.411102   -2.358014
H       3.890605   -4.515989   -2.149905
H       3.087726   -4.859412   -0.539827
H       0.721015   -5.249977   -0.472726
H      -0.315231   -4.636582   -1.778956
H       0.592685   -6.149375   -1.994883
