21

C      -0.084946    1.567789    0.106566
C       0.078803    0.081333    0.041549
N      -0.841440   -0.859445    0.724081
C       0.616456   -0.895112    1.015979
C       1.357586   -1.658544   -0.131648
C       2.693445   -2.316097    0.012848
N       0.331759   -2.104885   -1.110311
C       0.812287   -0.696641   -1.122849
C       1.404163   -0.061212   -2.342551
H       0.830824    2.087086   -0.196759
H      -0.894119    1.911770   -0.548965
H      -0.323065    1.886795    1.127322
H      -1.266785   -0.331030    1.488507
H       1.001103   -0.741457    2.017328
H       2.607129   -3.281294    0.526576
H       3.154289   -2.498272   -0.964219
H       3.380879   -1.691173    0.594702
H       0.845227   -2.579421   -1.856140
H       0.630993    0.182122   -3.081445
H       1.933425    0.866320   -2.098234
H       2.122460   -0.734120   -2.823761
