21

C       0.043743    1.509731   -0.034731
C      -0.041737   -0.012614    0.039868
C      -1.514249   -0.451763    0.012474
O       0.665642   -0.481795   -1.135259
C       0.894232   -1.863445   -1.169349
O       1.640874   -2.318521   -0.065954
C       0.933403   -2.069829    1.147081
C       0.713578   -0.558595    1.285636
O       1.972079    0.073614    1.449574
H       1.084372    1.832302   -0.022719
H      -0.432480    1.862558   -0.953747
H      -0.466978    1.963059    0.820304
H      -1.983283   -0.097177   -0.909751
H      -1.649103   -1.534373    0.063320
H      -2.051725   -0.013081    0.858882
H      -0.055301   -2.423611   -1.224567
H       1.491736   -2.059559   -2.062362
H      -0.012411   -2.631484    1.163014
H       1.568132   -2.427855    1.960630
H       0.136507   -0.338710    2.190577
H       2.518087   -0.234147    0.714658
