19

C      -0.177930    1.541763   -0.012068
C       0.010624    0.033391   -0.017665
C       1.166359   -0.598417   -0.841401
C       2.133801   -0.237764    0.307079
C       0.863165   -0.603732    1.158517
C       0.730762   -2.091612    0.767129
O       0.954599   -2.008102   -0.656447
C       0.693341   -0.238693    2.537159
C       0.538677    0.076832    3.687981
H       0.758468    2.096081    0.088730
H      -0.657011    1.866696   -0.941702
H      -0.826106    1.838817    0.818823
H      -0.951096   -0.464000   -0.180213
H       1.354371   -0.386417   -1.892579
H       3.016450   -0.869070    0.427942
H       2.399389    0.815397    0.371571
H       1.489157   -2.726122    1.238783
H      -0.264289   -2.498374    0.977459
H       0.407088    0.353362    4.704676
