21

O       0.054241    1.408696   -0.072424
C       0.044984   -0.011454   -0.047182
C      -1.405254   -0.483901   -0.003574
C      -2.184810   -0.074867   -1.261978
C      -3.676448   -0.400915   -1.114466
C      -3.903910   -1.839059   -0.706834
O      -3.161824   -2.825369   -1.431365
C      -2.834634   -2.610956   -0.050305
C      -1.470020   -2.005478    0.231101
H       0.963791    1.703797   -0.170618
H       0.538093   -0.429700   -0.940668
H       0.585364   -0.394207    0.834376
H      -1.874317    0.016702    0.855778
H      -2.048709    0.994183   -1.442235
H      -1.781502   -0.609589   -2.130314
H      -4.130949    0.246276   -0.351848
H      -4.210306   -0.200626   -2.051416
H      -4.939860   -2.120684   -0.510032
H      -3.122114   -3.444045    0.592099
H      -0.741046   -2.517210   -0.412171
H      -1.184320   -2.233829    1.264559
