17

C       0.323463    1.241658    0.179533
N      -0.083515   -0.107904   -0.164188
C       0.360844   -0.651794   -1.204443
N       0.006792   -1.929876   -1.652107
C       0.970181   -2.372159   -2.632319
C       1.469681   -1.014157   -3.174592
O       1.253939   -0.105361   -2.100471
C       2.088769   -3.234020   -2.052992
O       2.109317   -3.624279   -0.916594
H       0.975763    1.719768   -0.560892
H      -0.567560    1.866800    0.310517
H       0.845965    1.231507    1.143691
H      -0.199422   -2.573438   -0.900003
H       0.509906   -2.955871   -3.442594
H       2.532057   -1.013003   -3.435376
H       0.887297   -0.701592   -4.048162
H       2.888866   -3.503223   -2.780960
