19

O      -0.074937    1.427195   -0.060354
C       0.007253    0.039202   -0.068786
C       0.511459   -0.798677   -1.260818
C      -0.297824   -1.927976   -0.574356
C       0.425353   -2.222993    0.755701
C      -0.697016   -2.546164    1.773943
C      -1.085258   -1.069043    1.578179
C       0.405995   -0.719187    1.241766
C      -1.272344   -0.841565    0.048223
H       0.803353    1.782471    0.115942
H       0.050287   -0.464726   -2.194886
H       1.587851   -0.947201   -1.404065
H      -0.677509   -2.777413   -1.140982
H       1.343618   -2.809526    0.707000
H      -1.420549   -3.326365    1.512334
H      -0.302361   -2.731651    2.777735
H      -1.706567   -0.509923    2.275840
H       1.141155   -0.359583    1.961000
H      -2.214425   -0.614442   -0.446303
