15

C       0.382839    1.530023    0.157484
O       1.143950    0.409678   -0.268469
C      -0.222320    0.187600    0.093854
C      -0.466852   -0.610434    1.329453
N       0.329098   -0.388554    2.382053
C       0.093972   -1.125308    3.464999
C      -0.924967   -2.072069    3.517653
C      -1.697647   -2.207172    2.372086
N      -1.476718   -1.485541    1.270757
H       0.653387    1.928614    1.132683
H       0.134827    2.256960   -0.615068
H      -0.886800   -0.064092   -0.729047
H       0.741511   -0.949412    4.321482
H      -1.106795   -2.666833    4.404380
H      -2.519981   -2.917858    2.327403
