18

C       0.057721    1.451616    0.015630
N      -0.009527   -0.003022    0.023875
C      -0.109175   -0.767649   -1.094783
C      -0.151527   -2.104278   -0.735572
C      -0.073821   -2.146962    0.666561
C       0.014326   -0.836943    1.134254
C       0.115471   -0.341946    2.502349
C       0.128893   -1.389091    3.607425
O       0.186875    0.848995    2.770055
H       0.982695    1.799996    0.477059
H       0.015145    1.784538   -1.023491
H      -0.774088    1.881812    0.575081
H      -0.142802   -0.303704   -2.068836
H      -0.229255   -2.939254   -1.414102
H      -0.079974   -3.030143    1.286675
H       0.974885   -2.073483    3.487457
H       0.206882   -0.879135    4.568009
H      -0.785047   -1.991385    3.586699
