17

C      -0.155194    1.411353   -0.051606
N       0.152965    0.000795    0.079559
C       0.700969   -0.648368   -1.013570
C       1.323432   -0.148604   -2.117115
O       1.738597   -1.207243   -2.927239
C       1.361448   -2.337837   -2.305278
O       1.636664   -3.506847   -2.915831
C       0.715612   -2.090125   -1.135780
N       0.082900   -2.970029   -0.219185
H       0.772890    1.981612   -0.174485
H      -0.804849    1.639327   -0.912597
H      -0.642481    1.763604    0.860615
H      -0.578901   -0.555959    0.502390
H       1.569366    0.833369   -2.475246
H       1.955186   -3.309594   -3.804367
H      -0.200862   -3.828675   -0.677984
H       0.701173   -3.228832    0.545016
