17

C       0.068580    1.416081    0.163511
N      -0.030381    0.006642   -0.146155
C      -1.227413   -0.677256   -0.063963
N      -1.146699   -2.016551   -0.018043
C      -2.280738   -2.700622    0.008109
C      -3.536765   -2.072882    0.004497
N      -4.726974   -2.796182   -0.032161
N      -3.619790   -0.741887   -0.014136
C      -2.482605   -0.049453   -0.051255
H       1.118288    1.713425    0.119051
H      -0.473421    2.016752   -0.576132
H      -0.323526    1.674387    1.160091
H       0.758551   -0.570263    0.102454
H      -2.201341   -3.785879    0.038462
H      -4.702802   -3.688607    0.439454
H      -5.522646   -2.237076    0.243240
H      -2.574618    1.032117   -0.066121
