16

O      -1.027392    0.963392    0.525761
C      -0.092840    1.014348   -0.232495
C       1.174423    1.806729    0.036630
C       1.478296    2.804338   -1.085421
C       2.805416    3.632622   -1.062744
C       3.044817    3.310893   -2.569261
C       1.940728    2.250526   -2.447840
O       1.641507    1.277787   -3.079306
H      -0.100102    0.475688   -1.203494
H       1.069135    2.314283    1.000187
H       2.005964    1.091679    0.112477
H       0.620578    3.471095   -1.242528
H       2.705992    4.685780   -0.799766
H       3.559659    3.174805   -0.418377
H       2.748088    4.125402   -3.237975
H       4.028215    2.948750   -2.877268
