18

C      -0.026243    1.457939    0.177321
N       0.028483    0.024109   -0.059782
C      -1.254887   -0.621101   -0.283897
C      -1.165451   -1.969224   -0.951857
O      -0.340977   -2.053946   -2.113615
C       0.088280   -2.719491   -0.916701
C       1.272449   -2.120663   -0.210160
C       1.247015   -0.604909   -0.026728
O       2.289292   -0.005234    0.174116
H       0.990233    1.815471    0.330110
H      -0.473024    1.972108   -0.682431
H      -0.630561    1.683653    1.065229
H      -1.805402   -0.739964    0.664055
H      -1.863487    0.044796   -0.911188
H      -2.115258   -2.499275   -1.020336
H       0.059647   -3.807307   -0.976315
H       1.357102   -2.569807    0.788491
H       2.206054   -2.351736   -0.730901
