18

C      -0.166374    1.568813    0.012201
C      -0.055076    0.044776   -0.002981
C      -1.396452   -0.634046    0.271288
C       0.719052   -0.536438   -1.269328
N       1.734470   -0.989322   -0.298810
N       2.899907   -1.611232   -0.057903
N       3.039218   -1.536101    1.247256
C       1.983568   -0.878035    1.825283
C       1.131265   -0.523000    0.801715
H       0.797130    2.042736   -0.195736
H      -0.889072    1.910751   -0.736486
H      -0.508458    1.917758    0.991708
H      -2.141434   -0.331982   -0.472693
H      -1.306071   -1.723740    0.247223
H      -1.774518   -0.349579    1.258386
H       0.223900   -1.355601   -1.794958
H       1.094924    0.204173   -1.978344
H       1.938299   -0.727243    2.890313
