17

O      -0.208533    1.550779   -0.528159
C      -0.046652    0.198996   -0.162569
C      -1.388519   -0.487017    0.065460
C      -2.239435   -0.642789   -1.203253
O      -1.881004   -2.042520   -1.289508
C      -1.360343   -2.032549    0.051014
O      -2.090856    0.186127    1.122348
C      -1.796022   -0.148480    2.397681
O      -2.283045    0.408257    3.334006
H      -0.724831    1.978730    0.164925
H       0.470503   -0.295719   -0.990673
H       0.580636    0.086208    0.737845
H      -3.310677   -0.499341   -1.019197
H      -1.923866   -0.070178   -2.079100
H      -0.381436   -2.519666    0.124706
H      -2.054429   -2.491095    0.768446
H      -1.074796   -0.983084    2.475507
