19

C      -0.580808    1.343191    0.123894
C       0.194036    0.046685    0.008093
C       0.902751   -0.266100   -1.330203
C       2.193108   -0.248675   -0.491409
O       1.471449    0.104062    0.703245
C       2.911055   -1.603198   -0.360732
O       3.401192   -2.018812   -1.633459
C       3.968751   -1.551211    0.647699
C       4.875404   -1.470531    1.432875
H      -0.000454    2.181434   -0.274312
H      -1.523363    1.275682   -0.430822
H      -0.815204    1.555226    1.171761
H      -0.407649   -0.787124    0.394592
H       0.665587   -1.222726   -1.797834
H       0.829061    0.526632   -2.076746
H       2.931107    0.519168   -0.760373
H       2.165953   -2.354163   -0.071368
H       4.228524   -1.550912   -1.791871
H       5.662964   -1.413736    2.143283
