15

N      -0.124331    1.313676   -0.347069
C      -0.103267   -0.057744   -0.131366
C      -1.128751   -0.990768   -0.022988
C      -2.611263   -0.769113   -0.152160
C      -2.948133    0.188194   -1.210571
N      -3.158351    0.982753   -2.024138
C      -0.464387   -2.204498    0.273841
N       0.848419   -2.064102    0.352084
N       1.044737   -0.740790    0.100036
H       0.696612    1.666246   -0.822456
H      -0.958549    1.622941   -0.832128
H      -3.112054   -1.717947   -0.374036
H      -3.060906   -0.397075    0.779318
H      -0.910821   -3.177177    0.428754
H       1.980723   -0.373470    0.122997
