16

C      -0.450874    1.335392   -0.572716
C      -0.001720   -0.021235   -0.071970
C       1.088442   -0.750631   -0.754488
O       1.331981   -0.068188    0.470744
C      -0.988023   -0.781340    0.663149
C      -1.831814   -1.385880    1.270592
C      -2.841224   -2.130137    2.018960
C      -3.373373   -3.283361    1.279949
N      -3.799884   -4.190970    0.708030
H       0.366660    1.825720   -1.106371
H      -1.306895    1.232403   -1.246184
H      -0.750941    1.970385    0.265877
H       1.120324   -1.837094   -0.703395
H       1.538443   -0.305384   -1.641215
H      -2.421231   -2.492716    2.966076
H      -3.681503   -1.476959    2.287179
