18

C      -0.034291    1.703055    0.110570
C      -0.102886    0.176878    0.032075
C       0.651035   -0.478948    1.207907
C      -1.541803   -0.318435   -0.006264
N      -2.512516    0.397934    0.379385
N      -1.644126   -1.650986   -0.486874
C      -2.783062   -2.406610   -0.602138
O      -3.902503   -2.055549   -0.303659
H       1.009412    2.032275    0.121502
H      -0.538180    2.165739   -0.741390
H      -0.528042    2.062783    1.015947
H       0.380557   -0.147326   -0.902149
H       0.622298   -1.572750    1.163739
H       1.700971   -0.171555    1.206171
H       0.206016   -0.172050    2.159509
H      -3.394149   -0.110360    0.307084
H      -0.788376   -2.093830   -0.786875
H      -2.561079   -3.410498   -1.014143
