22

C       0.248340    1.558959    0.108928
C      -0.056610    0.098669   -0.043889
C      -1.067642   -0.625586    0.748488
N       0.359181   -0.945609    0.985628
C       0.808890   -1.830219   -0.160505
C       0.243174   -3.240246   -0.218361
C       0.610937   -4.066255    1.008829
O       0.048320   -5.360753    0.844699
C       0.394375   -0.773302   -1.220809
H       1.299605    1.770219   -0.115960
H      -0.367271    2.158365   -0.572573
H       0.046159    1.892894    1.130777
H      -1.514937   -0.106376    1.591028
H      -1.721497   -1.355569    0.277564
H       1.899782   -1.888598   -0.086782
H      -0.847842   -3.231241   -0.319211
H       0.630252   -3.741903   -1.114272
H       1.708033   -4.117543    1.105996
H       0.227950   -3.571103    1.913290
H       0.231020   -5.868607    1.640376
H      -0.385938   -1.053432   -1.935687
H       1.243067   -0.364551   -1.773482
