16

N      -0.114064    1.342295    0.026981
C       0.094664    0.000316   -0.046741
O       1.181990   -0.515643   -0.216910
C      -1.205209   -0.824838    0.044555
C      -0.977046   -2.337784    0.156418
C      -1.745100   -2.736232    1.388055
C      -2.343022   -1.705334    2.001003
C      -2.065552   -0.455544    1.274047
O      -2.425802    0.667878    1.564872
H       0.705484    1.925056    0.097757
H      -0.979716    1.667679    0.440801
H      -1.797741   -0.565573   -0.840441
H      -1.328466   -2.888223   -0.723678
H       0.092225   -2.555809    0.251850
H      -1.786481   -3.766692    1.725274
H      -2.937758   -1.731235    2.904466
