19

C      -0.040928    1.587184    0.259850
C       0.019892    0.065359    0.043903
C       0.912276   -0.619684    1.086362
C      -1.379618   -0.502582   -0.002877
C      -2.235956   -0.951962    1.199199
C      -1.996184   -1.879087    0.065257
O      -2.935332   -1.565647   -1.003644
C      -2.342844   -0.317346   -1.154071
O      -2.567914    0.494483   -1.992443
H       0.961268    2.024390    0.210310
H      -0.662634    2.063524   -0.502947
H      -0.465097    1.823446    1.242172
H       0.463559   -0.113351   -0.945082
H       0.563888   -0.422675    2.106063
H       0.948725   -1.704491    0.940932
H       1.935340   -0.239191    1.012719
H      -1.665831   -1.136847    2.104398
H      -3.231942   -0.549314    1.354268
H      -1.568112   -2.871180    0.070214
