20

C       0.004701    1.501006    0.025074
C      -0.012248    0.006728   -0.030757
C      -1.069725   -0.800479    0.090577
C      -0.704228   -2.238675    0.018087
C      -1.265290   -3.235960    1.014946
C      -1.676447   -3.301715   -0.433594
C       0.771704   -2.251554   -0.411780
C       1.264526   -0.796690   -0.194410
H       0.642026    1.860822    0.843833
H       0.417463    1.930003   -0.897452
H      -0.997817    1.912733    0.171254
H      -2.091174   -0.469145    0.251780
H      -0.595307   -4.002302    1.392077
H      -1.991204   -2.882782    1.740284
H      -2.684750   -2.997736   -0.696634
H      -1.286851   -4.114931   -1.038493
H       1.364879   -2.984928    0.141691
H       0.844239   -2.513130   -1.473113
H       1.879918   -0.436493   -1.028055
H       1.890605   -0.702175    0.704664
