18

O      -0.010437    0.589947    1.334598
C       0.017475    1.432282    0.466445
N       1.099816    1.760311   -0.300189
C       2.366732    1.099643   -0.251131
C       3.080697    0.952544    1.069235
C       3.673485    1.850278    0.014741
C       4.728947    1.280243   -0.930484
C       4.001825    0.156938   -1.644051
C       2.718626    0.078490   -1.287534
H      -0.859007    2.060729    0.203873
H       0.948476    2.429517   -1.040615
H       2.625045    1.436076    1.924838
H       3.541285   -0.006601    1.279896
H       3.648328    2.917527    0.201167
H       5.096560    2.035122   -1.638399
H       5.610283    0.913180   -0.388807
H       4.503264   -0.513990   -2.332265
H       1.993748   -0.640361   -1.651475
