19

C      -0.161572    1.622525   -0.232994
C      -0.035774    0.111684   -0.045408
C      -1.377952   -0.530230    0.228894
C      -1.449756   -0.958966    1.496318
C      -0.126128   -0.858521    2.266315
C       0.780675   -0.565408    1.095917
C       2.110474   -0.033644    0.518117
C       1.221390   -0.623321   -0.640679
O       0.956751   -1.769359    0.216596
H       0.796809    2.114354   -0.416966
H      -0.801976    1.830835   -1.097976
H      -0.632281    2.095541    0.635460
H      -2.215007   -0.517057   -0.461077
H      -2.340841   -1.369637    1.959383
H      -0.141583   -0.060157    3.018781
H       0.140793   -1.791888    2.772402
H       2.314283    1.037064    0.566993
H       2.989832   -0.639357    0.737848
H       1.510532   -0.816774   -1.676136
