18

C       0.043601    1.418960    0.041692
N      -0.000121   -0.010082   -0.200034
C       1.197841   -0.771829    0.122503
C      -1.219303   -0.619277   -0.114235
C      -2.496617   -0.126449   -0.029110
C      -3.296081   -1.303454   -0.052360
N      -4.682021   -1.359280   -0.070023
N      -2.585241   -2.408970   -0.115042
O      -1.235973   -1.959196   -0.162900
H       1.012377    1.804607   -0.285699
H      -0.734271    1.919298   -0.541027
H      -0.093670    1.678946    1.103159
H       1.386617   -0.821728    1.205991
H       1.100412   -1.787858   -0.258095
H       2.058694   -0.297442   -0.356887
H      -2.823332    0.896779    0.023278
H      -5.125345   -0.668458    0.518796
H      -5.030837   -2.288588    0.126512
