23

O      -0.095408    1.445224    0.394079
C      -0.011402    0.074523    0.033295
C      -1.407724   -0.524692    0.132869
C      -1.435298   -2.021911   -0.225054
C      -2.799391   -2.639302   -0.119497
C      -3.528234   -3.147764   -1.115710
C      -4.834934   -3.739793   -0.647009
C      -4.947943   -3.218058    0.809077
C      -3.507736   -2.815842    1.211999
H       0.783248    1.829175    0.323155
H       0.372936   -0.044883   -0.993376
H       0.675153   -0.472224    0.701256
H      -1.777002   -0.367200    1.152451
H      -2.078705    0.028896   -0.533554
H      -1.051559   -2.159283   -1.243365
H      -0.742539   -2.555559    0.443234
H      -3.210088   -3.181422   -2.153192
H      -5.689360   -3.440923   -1.265346
H      -4.800537   -4.838544   -0.687106
H      -5.588747   -2.330762    0.825902
H      -5.391884   -3.948567    1.490219
H      -3.010034   -3.602345    1.799231
H      -3.486145   -1.915120    1.835618
