20

C      -0.055473    1.610364    0.115682
C      -0.006628    0.083648    0.005269
C      -1.402812   -0.536577   -0.094579
O      -2.083230   -0.167413   -1.280967
C      -1.394321   -2.091286    0.082584
C      -0.575127   -2.818900   -0.987854
O      -0.820670   -2.444298    1.336144
C      -2.798662   -2.566557    0.036518
N      -3.890663   -2.943529    0.061196
H       0.952319    2.035019    0.126530
H      -0.602799    2.046851   -0.724501
H      -0.559721    1.921802    1.036778
H       0.576724   -0.204246   -0.880502
H       0.508163   -0.350294    0.867887
H      -2.024069   -0.139388    0.720105
H      -1.475740   -0.268618   -2.021798
H       0.476084   -2.536366   -0.901836
H      -0.655924   -3.898004   -0.845328
H      -0.941542   -2.574463   -1.987564
H      -1.397209   -2.122640    2.039172
