15

O       0.121209    1.469849   -0.300976
C       0.035883    0.113410   -0.082043
C      -0.079721   -0.376620    1.382333
O      -1.174678   -1.250705    1.048121
C      -1.366839   -0.616399   -0.239375
C      -2.511531    0.269884   -0.305934
C      -3.461691    1.002831   -0.366468
C       1.095965   -0.629835   -0.862887
O       1.851893   -0.053016   -1.605588
H       0.799124    1.590993   -0.986522
H       0.766448   -0.921334    1.814962
H      -0.379431    0.442139    2.046822
H      -1.423768   -1.370612   -1.034072
H      -4.301657    1.651039   -0.418379
H       1.129905   -1.727936   -0.718065
