14

N       0.023885    1.376453    0.154811
C      -0.061450    0.003163    0.056260
C      -1.195565   -0.732045    0.030860
N      -1.099352   -2.122860   -0.009840
C       0.113382   -2.705363   -0.016951
O       0.065707   -4.048350   -0.042341
N       1.247081   -2.081814   -0.006809
C       1.256154   -0.695972    0.014931
O       2.286501   -0.039728   -0.008246
H       0.961757    1.690771   -0.066785
H      -0.713913    1.920456   -0.264677
H      -2.198717   -0.328434    0.046321
H      -1.923694   -2.700679   -0.026136
H       0.988797   -4.338593   -0.050204
