19

C      -0.150453    1.131269    0.495394
O      -0.201710   -0.210200    0.041439
C       0.513402   -0.484105   -1.148744
C       2.058271   -0.397686   -1.042639
C       2.103722   -1.883922   -0.603797
C       0.678749   -2.062011   -1.193708
O      -0.279349   -2.813865   -0.525905
C      -0.164959    0.123963   -2.352430
O       0.384806    0.329584   -3.405803
H       0.862421    1.425515    0.798536
H      -0.502495    1.835981   -0.270649
H      -0.811231    1.195092    1.362531
H       2.478548   -0.229110   -2.036360
H       2.463817    0.345409   -0.354605
H       2.896001   -2.517226   -1.007336
H       2.081897   -1.987341    0.484134
H       0.716809   -2.407875   -2.230163
H      -0.507361   -2.316921    0.270920
H      -1.251755    0.321125   -2.207369
