18

C      -0.716233    1.009310   -0.299115
C       0.671345    0.506747    0.140474
C       1.346428   -0.269710   -0.893868
C       1.873279   -0.909660   -1.766284
C       2.508344   -1.688351   -2.814958
C       1.539527   -2.494964   -3.700627
C       2.208526   -3.321594   -4.786167
O       0.345357   -2.473702   -3.547103
H      -0.634079    1.656957   -1.176089
H      -1.365689    0.170294   -0.561576
H      -1.189363    1.577290    0.507615
H       1.298862    1.361547    0.424522
H       0.569237   -0.104864    1.046218
H       3.100452   -1.044369   -3.481721
H       3.235883   -2.397520   -2.393780
H       2.895568   -4.051086   -4.342519
H       1.449782   -3.842648   -5.370493
H       2.806141   -2.681369   -5.444708
