18

C       0.003685    1.539139    0.040496
C      -0.071792    0.019477    0.065654
C      -1.484651   -0.505713   -0.193361
O      -1.935127   -0.203400   -1.504154
N       0.930036   -0.649277   -0.820850
C       1.726722   -1.085550    0.210382
O       2.844246   -1.526872    0.272689
C       0.677642   -0.664659    1.265346
O       1.161795    0.185199    2.269860
H       1.031393    1.884997    0.167207
H      -0.393888    1.914426   -0.906762
H      -0.594290    1.960681    0.853601
H      -1.514121   -1.588759   -0.004326
H      -2.188184   -0.024825    0.494678
H      -1.454553   -0.777438   -2.109740
H       1.223412   -0.390710   -1.754333
H       0.113941   -1.507820    1.688337
H       2.080688   -0.060627    2.431402
