17

C      -0.079955    1.497670    0.046947
C       0.030326    0.005367   -0.025246
C       0.941226   -0.834549   -0.921815
C       0.092643   -2.051506   -0.444875
O       0.441746   -2.152579    0.976138
C      -0.284697   -0.938160    1.153098
C      -1.082472   -1.041497   -0.099181
C       0.022208   -3.291135   -1.156208
C      -0.045270   -4.316095   -1.780631
H       0.852069    1.944360    0.411681
H      -0.298196    1.932659   -0.934882
H      -0.881706    1.802640    0.728533
H       0.771724   -0.620661   -1.979907
H       2.011638   -0.891158   -0.700271
H      -0.535915   -0.617254    2.155360
H      -2.136318   -1.010380   -0.339132
H      -0.101416   -5.226374   -2.324959
