17

C      -0.039716    1.507905    0.042669
C       0.016203   -0.005929    0.022673
O      -1.341848   -0.493269    0.021731
C      -1.486245   -1.815501    0.004752
N      -0.518298   -2.690905   -0.010821
O      -1.155505   -3.914364   -0.024522
N      -2.516515   -3.766793   -0.017504
C      -2.753325   -2.486072    0.000769
C      -4.118657   -1.890095    0.014262
H       0.975977    1.913777    0.045180
H      -0.562493    1.890322   -0.838266
H      -0.557465    1.866837    0.936374
H       0.526601   -0.387675   -0.868707
H       0.533657   -0.410696    0.899717
H      -4.264719   -1.275444    0.908276
H      -4.266260   -1.239700   -0.853760
H      -4.872848   -2.678300   -0.000785
