12

O       0.003609    1.262249    0.008878
C       1.245992    1.743241   -0.000258
C       2.125703    0.689384   -0.014521
N       3.484413    0.603599   -0.027938
C       3.920679   -0.627947   -0.038957
C       3.055154   -1.786554   -0.037159
N       1.750317   -1.736977   -0.024466
C       1.266158   -0.460589   -0.012750
N      -0.015529   -0.129087    0.001291
H       1.350195    2.816492    0.004738
H       4.997307   -0.780806   -0.050057
H       3.514355   -2.773363   -0.047042
