25

C      -0.105877    1.618705    0.095066
C       0.049498    0.101372   -0.060002
C       0.723894   -0.545394    1.144954
C      -0.029686   -0.604649    2.503225
C       0.572173   -2.013490    2.742788
C       0.919946   -2.103231    1.223542
C      -0.117415   -2.913306    0.442029
C       2.330297   -2.574125    0.896339
O       2.448506   -3.945720    1.253341
H       0.868371    2.106999    0.210669
H      -0.598681    2.060253   -0.776795
H      -0.705530    1.867391    0.977304
H      -0.937828   -0.349203   -0.218312
H       0.631847   -0.113515   -0.966254
H       1.700163   -0.065525    1.299490
H       0.193869    0.171564    3.239050
H      -1.115267   -0.637555    2.362904
H       1.471124   -1.981382    3.365141
H      -0.092335   -2.784782    3.139542
H      -1.139293   -2.627193    0.709531
H      -0.003628   -2.775472   -0.639306
H       0.006445   -3.977092    0.660191
H       2.530924   -2.425311   -0.178860
H       3.056985   -1.961698    1.454401
H       3.336924   -4.239688    1.033408
