21

C       0.174277    1.452954    0.193698
N      -0.099822    0.045575   -0.086347
C       0.610042   -0.498283   -1.238519
C       2.082570   -0.458404   -1.043010
N       3.217405   -0.402348   -0.825217
C       0.119789   -1.929715   -1.569989
C      -1.382755   -1.932509   -1.870999
C       0.917571   -2.537395   -2.727687
O       0.467918   -3.871955   -2.902881
H       1.239280    1.682630    0.354779
H      -0.182457    2.063816   -0.642756
H      -0.383480    1.750786    1.085261
H       0.111771   -0.518467    0.730984
H       0.385749    0.151480   -2.095777
H       0.310220   -2.557542   -0.688685
H      -1.600518   -1.313181   -2.750009
H      -1.712610   -2.950069   -2.086735
H      -1.951984   -1.534037   -1.030212
H       0.752500   -1.938034   -3.639892
H       1.992713   -2.510241   -2.502666
H       1.001134   -4.280613   -3.590478
