21

C       0.248178    1.264337    0.179444
O      -0.136570   -0.045886   -0.192600
C       0.559606   -0.548959   -1.286384
C       0.292638    0.032754   -2.678768
C       0.506309   -1.179925   -3.625191
C       1.306792   -2.178555   -2.773980
C       2.650825   -1.546445   -2.272392
C       1.933269   -1.146508   -0.984831
C       0.740595   -2.033299   -1.334345
H       1.319653    1.321044    0.418221
H       0.029753    1.995929   -0.611367
H      -0.330604    1.525672    1.068487
H      -0.730958    0.416741   -2.725809
H       0.964933    0.862653   -2.921018
H      -0.458899   -1.618304   -3.901817
H       1.024646   -0.910934   -4.551240
H       1.382866   -3.178758   -3.200146
H       3.409204   -2.311340   -2.084344
H       3.093155   -0.756593   -2.891845
H       2.382284   -0.990233   -0.010396
H       0.189263   -2.743530   -0.733256
