15

C       0.027413    1.345063   -0.075710
O      -0.040274   -0.083876   -0.071323
C      -1.242829   -0.640898    0.029404
N      -2.274391    0.135600    0.116980
O      -3.533171   -0.463697    0.222457
C      -3.632568   -1.800637    0.229630
C      -2.594952   -2.647444    0.141488
C      -1.249069   -2.125688    0.028612
N      -0.138779   -2.760033   -0.065454
H       1.087501    1.581631   -0.164722
H      -0.532353    1.757604   -0.919877
H      -0.383306    1.755982    0.850897
H      -4.671363   -2.099119    0.316845
H      -2.766873   -3.716916    0.155009
H      -0.314521   -3.767939   -0.051552
