19

C       0.013229    1.567590    0.033762
C      -0.004707    0.034595    0.045507
C       0.786463   -0.547491    1.222695
N      -1.378853   -0.473283    0.035701
C      -2.368190   -0.290806    1.003102
C      -3.465858   -0.952815    0.539931
N      -3.204015   -1.545861   -0.684148
C      -1.960438   -1.230054   -0.931175
O      -1.252290   -1.584812   -2.021891
H       1.042892    1.931372   -0.033410
H      -0.548163    1.957424   -0.819389
H      -0.428666    1.975126    0.948664
H       0.437994   -0.327249   -0.886143
H       0.372139   -0.215606    2.180083
H       0.767137   -1.640301    1.202932
H       1.828786   -0.218325    1.175048
H      -2.186578    0.279194    1.898097
H      -4.433919   -1.043627    1.007678
H      -1.853490   -2.109993   -2.564587
