18

C      -0.025739    1.541685    0.014465
C       0.043681    0.019358    0.057174
C       0.563915   -0.530651    1.376246
O      -1.292660   -0.534800   -0.108293
C      -1.738085   -0.651159   -1.377751
O      -1.139359   -0.350442   -2.372268
N      -3.025981   -1.192412   -1.319961
C      -3.867600   -1.478776   -2.386754
O      -3.633942   -1.311038   -3.550919
H       0.973761    1.964465    0.155539
H      -0.406582    1.881414   -0.951024
H      -0.675170    1.921313    0.809835
H       0.647832   -0.343333   -0.778835
H      -0.061028   -0.197191    2.210605
H       0.574089   -1.623769    1.366029
H       1.584479   -0.177597    1.549750
H      -3.370953   -1.389645   -0.392205
H      -4.821406   -1.898874   -2.007686
