18

C      -0.033408    1.566886   -0.057824
C      -0.015368    0.057600    0.019061
N       1.285413   -0.624580   -0.167255
C       0.658745   -0.695953    1.160832
C       1.362135    0.065034    2.274117
C       0.106134   -1.960191    1.594214
C      -0.295673   -3.014061    2.012693
C      -1.197424   -0.616659   -0.605776
O      -2.131388   -0.024086   -1.084595
H       0.932172    1.990203    0.216864
H      -0.269438    1.875527   -1.079730
H      -0.808304    1.979033    0.594592
H       1.161419   -1.507138   -0.663437
H       1.864129    0.950973    1.886162
H       0.647574    0.363388    3.046361
H       2.113973   -0.580675    2.736799
H      -0.667556   -3.943277    2.368710
H      -1.140407   -1.726572   -0.622214
