17

C       0.351930    0.795734    0.951940
C      -0.158514    0.177932   -0.334780
O       0.373288    0.358221   -1.408279
C      -1.373686   -0.692859   -0.227945
C      -2.269272   -1.255361   -1.347366
C      -2.882926   -1.879779   -0.074435
C      -1.494543   -2.027050    0.614249
O      -1.885385   -1.367949    1.850658
C      -2.566292   -0.622988    0.792823
H       1.399807    1.077902    0.838612
H      -0.230380    1.702386    1.160448
H       0.204314    0.122990    1.800611
H      -2.884162   -0.529218   -1.884137
H      -1.790799   -1.942473   -2.048174
H      -3.735827   -2.547203    0.042597
H      -0.808304   -2.872497    0.656779
H      -3.192803    0.225065    1.068502
