18

C       0.017066    1.533434    0.098780
O       1.305310    2.121713   -0.035844
C       2.268578    1.408852   -0.760290
C       1.922565    0.066214   -1.386175
N       0.576687   -0.452228   -1.259788
C       0.031384   -0.001743    0.030721
C       0.877276   -0.662578    1.121741
O       2.232988   -0.230899    1.112986
C       2.764949    0.110895   -0.132827
H      -0.381054    1.890620    1.055455
H      -0.649645    1.901645   -0.699059
H       2.966480    2.082759   -1.247529
H       2.415833   -0.214628   -2.312097
H       0.007822   -0.069153   -2.011619
H      -0.996988   -0.367934    0.126708
H       0.489410   -0.420243    2.116127
H       0.824444   -1.750851    0.977517
H       3.816543   -0.150405   -0.197896
