23

C       0.078124    1.555786    0.017027
C      -0.060591    0.028153   -0.048486
C      -1.537155   -0.392445   -0.020770
C       0.710775   -0.538638   -1.251547
C       0.780426   -2.061384   -1.315721
O       0.060818   -0.034097   -2.450246
C       0.824169    0.122981   -3.551087
C      -0.002781    0.660914   -4.695672
O       2.001721   -0.131888   -3.602989
H       1.129722    1.860828    0.044547
H      -0.385184    2.025289   -0.856243
H      -0.410845    1.953565    0.911645
H       0.433611   -0.394567    0.837299
H      -2.059127   -0.034001   -0.912900
H      -1.655356   -1.478783    0.026406
H      -2.036718    0.031821    0.855806
H       1.729743   -0.139662   -1.244686
H      -0.211230   -2.501200   -1.451599
H       1.417174   -2.370884   -2.147417
H       1.210906   -2.457535   -0.390407
H      -0.827290   -0.023074   -4.915964
H      -0.444294    1.623051   -4.420827
H       0.628359    0.778821   -5.575589
