19

C      -0.126908    1.507966    0.023644
C      -0.027672   -0.000347    0.084590
C       1.303243   -0.696427   -0.173685
C       0.699103   -0.679629    1.197314
C       1.340667   -0.163901    2.468752
C       0.420400   -0.709879    3.583985
O      -0.679215   -1.379016    2.967620
C       0.294264   -1.909619    2.015762
C       1.475099   -1.588249    3.013442
H       0.779828    1.979333    0.417614
H      -0.260567    1.857847   -1.005967
H      -0.973247    1.872615    0.615728
H      -0.905149   -0.525632   -0.286989
H       1.301327   -1.626278   -0.735048
H       2.172365   -0.071494   -0.358150
H       2.012313    0.672433    2.612702
H       0.285028   -0.256907    4.557277
H       0.002396   -2.860007    1.572930
H       2.305371   -2.148349    3.419571
