18

C       0.041253   -1.176515   -0.079589
C       0.025434    0.025009   -0.013408
C      -0.013231    1.445589    0.104581
C      -1.221941    2.252320    0.578463
C      -0.741350    3.365232   -0.385712
C       0.114604    4.417598    0.311314
C       1.290537    3.576614    0.872870
C       1.214892    2.300529    0.042282
N       0.242718    2.407436   -1.064093
H       0.059484   -2.235835   -0.148392
H      -2.152101    1.788674    0.246305
H      -1.296301    2.484512    1.645894
H      -1.481716    3.755411   -1.082837
H       0.476727    5.150049   -0.417247
H      -0.437666    4.957148    1.086257
H       2.254758    4.072730    0.735778
H       1.181571    3.370959    1.942210
H       2.130178    1.782838   -0.225354
