16

N       0.011286    1.315119   -0.336439
C       0.049887   -0.070706   -0.070466
N      -1.022789   -0.832071    0.129627
N      -0.523194   -2.073223    0.288160
C       0.836319   -2.139190    0.171216
C       1.587465   -3.424515    0.285116
O       0.925500   -4.495447   -0.384589
C       1.236246   -0.839686   -0.064204
O       2.506667   -0.390208   -0.258077
H       0.234118    1.861607    0.491076
H      -0.919306    1.585769   -0.636952
H      -1.145339   -2.859308    0.364017
H       2.611913   -3.269830   -0.080253
H       1.663013   -3.752152    1.328750
H       0.872470   -4.260378   -1.317521
H       2.426985    0.487354   -0.654480
