18

C      -0.038302    1.487865   -0.083563
N       0.030691    0.042369   -0.187847
C      -1.048706   -0.597001   -0.033287
N      -2.336113   -0.119101    0.187587
C      -3.337521   -1.175259    0.223287
C      -2.546250   -2.417829   -0.235322
N      -1.154199   -2.011129   -0.044459
C      -0.142716   -2.931894    0.141205
O       1.022841   -2.705766    0.331900
H       0.975148    1.894739   -0.044009
H      -0.533617    1.944236   -0.956944
H      -0.575603    1.828488    0.815709
H      -2.571426    0.798338   -0.149176
H      -3.736952   -1.306219    1.236926
H      -4.178068   -0.965850   -0.444215
H      -2.780391   -3.306095    0.355019
H      -2.746469   -2.643017   -1.290562
H      -0.559123   -3.960872    0.100516
