15

O      -0.032573   -0.085337    0.059675
C      -0.045936    1.125805    0.014204
N      -1.189340    1.872700   -0.097935
C      -1.261699    3.294561    0.051073
C      -0.813199    3.949901    1.327054
C       0.049505    4.036319    0.071693
C       1.311843    3.246365   -0.015105
O       2.407993    3.743339   -0.141493
N       1.140918    1.870455    0.056137
H      -2.031950    1.331347    0.019510
H      -2.081654    3.739740   -0.501725
H      -1.301058    4.863595    1.645984
H      -0.471339    3.304439    2.128469
H       0.119801    4.998209   -0.419409
H       1.983527    1.312210    0.035459
