10

F       0.009048    0.011792    0.003853
C      -0.001055    1.334565    0.010505
C      -1.192433    2.052702    0.029612
N      -1.242242    3.383584    0.036826
N      -0.112882    4.084771    0.025534
C       1.057648    3.449711    0.007116
C       1.172656    2.063288   -0.001230
F       2.353534    1.467416   -0.019593
H      -2.141642    1.526041    0.039413
H       1.950694    4.066851   -0.001505
