18

O       0.045874   -0.019798    0.105597
C       0.004230    1.188074    0.065152
C      -1.208155    2.115394    0.270951
C      -0.645350    3.510847    0.102988
C       0.664717    3.386002   -0.154865
N       1.063749    2.037546   -0.181784
C      -1.403573    4.767889    0.205286
C      -2.838096    4.882082   -0.278911
C      -2.543428    4.940185    1.193338
H      -1.982767    1.861146   -0.461483
H      -1.638629    1.929313    1.261457
H       1.396800    4.161065   -0.332456
H       1.997203    1.704281   -0.353985
H      -0.793350    5.653043    0.048351
H      -3.127065    5.794101   -0.789160
H      -3.314407    3.987995   -0.665829
H      -2.821089    4.085649    1.800478
H      -2.627738    5.892751    1.704400
