18

C       0.054199    1.492190    0.049237
C       0.424501    0.013409    0.018560
N       0.299862   -0.520988   -1.346732
C       0.708613   -1.824205   -1.551808
C       1.717419   -2.402924   -2.236751
N       1.693578   -3.786978   -2.086323
C       0.662962   -3.988091   -1.320964
N       0.143859   -5.197892   -0.925922
O      -0.001427   -2.885217   -0.934344
H       0.690023    2.065283   -0.631490
H      -0.988674    1.644468   -0.253019
H       0.166849    1.896759    1.059244
H       1.467777   -0.123994    0.322612
H      -0.194614   -0.544140    0.739154
H      -0.627191   -0.340689   -1.719947
H       2.467428   -1.908678   -2.833790
H       0.806500   -5.952830   -1.027071
H      -0.317485   -5.186609   -0.028000
