16

C       0.076780    1.545277   -0.075950
C       0.008288    0.034935    0.078605
O       0.580100   -0.594222   -1.091132
C       1.307135   -1.709203   -0.766530
O       1.663685   -2.500586   -1.590011
C       1.548879   -1.718212    0.709996
C       2.253387   -0.473420    1.223142
C       0.759756   -0.558712    1.265108
H       1.113033    1.890737   -0.118688
H      -0.431074    1.858109   -0.991890
H      -0.415095    2.028757    0.773927
H      -1.042667   -0.279758    0.127813
H       1.689819   -2.671451    1.199827
H       2.784475   -0.581422    2.161684
H       2.735995    0.179460    0.503670
H       0.247796   -0.618568    2.217443
