17

C       0.159794   -1.239447   -0.352871
C       0.129031   -0.038187   -0.376270
C       0.122259    1.418427   -0.375011
C       1.158604    2.007281    0.620225
C       1.155848    3.463733    0.628241
C       1.135596    4.668344    0.606729
C       1.088197    6.104993    0.602388
C       2.315837    6.925369    0.635086
O       1.574399    6.784791   -0.568676
H       0.173981   -2.301102   -0.345443
H       0.338431    1.797465   -1.380208
H      -0.874820    1.790439   -0.113472
H       0.942517    1.626857    1.625337
H       2.155342    1.633793    0.358880
H       0.180617    6.545223    1.014391
H       2.282830    7.909718    1.100771
H       3.281651    6.424215    0.654607
