15

C      -0.092379    1.359718    0.032902
O      -0.053136   -0.068237    0.094923
C       0.652502   -0.598860    1.089030
N       1.270646    0.123880    1.954137
C       1.975778   -0.541313    2.948084
C       2.018902   -1.876402    3.015032
O       1.368598   -2.657820    2.105022
C       0.643440   -2.083277    1.083398
N       0.027487   -2.773819    0.221110
H       0.914352    1.769680   -0.085664
H      -0.708909    1.594368   -0.834600
H      -0.532395    1.774635    0.943872
H       2.494738    0.070910    3.674353
H       2.543875   -2.463444    3.755462
H       0.155219   -3.770437    0.405315
