18

C       0.025334    1.592348    0.102695
C      -0.035879    0.068884    0.073901
C       0.711777   -0.561354    1.267681
O       2.085726   -0.221628    1.261661
N      -1.410183   -0.428421    0.046475
C      -2.581504    0.168215    0.356086
N      -3.586077   -0.682056    0.231912
C      -2.957042   -1.820077   -0.163520
N      -1.643415   -1.723273   -0.290462
H       1.074727    1.891621    0.124220
H      -0.452700    2.033881   -0.775709
H      -0.449763    1.995331    1.003168
H       0.431309   -0.297826   -0.847517
H       0.296661   -0.166843    2.202165
H       0.550087   -1.645906    1.257116
H       2.525170   -0.763915    0.599010
H      -2.659683    1.202024    0.651373
H      -3.478387   -2.743290   -0.368803
