18

C      -0.582760    1.437048    0.196148
C       0.043324    0.069804    0.033771
O       1.196115    0.058125   -0.853638
C       1.999386   -0.654341    0.102029
C       2.908036    0.289929    0.933584
C       1.770311    0.385298    1.939491
N       1.590312    0.939007    3.064581
O       2.707387    1.711379    3.428265
C       0.871803   -0.567397    1.183375
H       0.132135    2.157009    0.602088
H      -0.935807    1.804059   -0.772738
H      -1.440886    1.381409    0.874469
H      -0.703622   -0.646999   -0.335764
H       2.421467   -1.579301   -0.295744
H       3.800384   -0.186330    1.354729
H       3.200470    1.212906    0.427319
H       2.448126    2.050195    4.292014
H       0.430670   -1.401762    1.726400
