17

C      -0.178066    1.281814   -0.064404
O       0.062237   -0.128943   -0.066821
C       0.751606   -0.583903   -1.112063
N       1.206110    0.104633   -2.085409
C       1.886128   -0.848024   -2.963054
C       1.473280   -2.281031   -2.452220
N       1.020519   -1.950962   -1.087036
C       0.426446   -2.909027   -3.256338
C      -0.439735   -3.429590   -3.907949
H       0.766754    1.831142   -0.048285
H      -0.740407    1.576897   -0.954117
H      -0.754390    1.481743    0.839329
H       1.605200   -0.700069   -4.008601
H       2.973832   -0.725455   -2.886821
H       2.340867   -2.946849   -2.411333
H       0.299835   -2.538829   -0.689856
H      -1.202653   -3.886508   -4.488754
