20

C       0.050228    1.704586    0.113323
C       0.066395    0.180206    0.080653
C       1.033741   -0.552100   -0.914910
C       1.637941   -1.338356    0.253782
C       2.222795   -0.413106    1.260797
C       0.719504   -0.590099    1.246875
C       0.064481   -1.208414    2.431515
N      -1.249672   -0.864640    2.620636
O       0.639535   -1.994944    3.164528
H       1.053322    2.116040    0.262420
H      -0.338984    2.111229   -0.826441
H      -0.583263    2.082536    0.924679
H      -0.951025   -0.192552   -0.080071
H       0.502258   -1.171272   -1.639913
H       1.737737    0.091128   -1.454334
H       1.849091   -2.400026    0.265098
H       2.693425   -0.888701    2.113543
H       2.659103    0.533975    0.953676
H      -1.654896   -0.073794    2.150549
H      -1.680344   -1.173590    3.477461
