14

C      -0.165699    1.389510    0.098069
O       0.178904    0.021871   -0.087205
C       0.746781   -0.572882    1.053839
C      -0.240016   -0.699520    2.160007
N      -1.019689   -0.751244    3.010181
C       1.284038   -1.885638    0.702555
C       1.758964   -2.961280    0.438515
C       2.307973   -4.249357    0.077759
O       2.937597   -4.949454    0.833306
H       0.714491    1.986635    0.376552
H      -0.549919    1.738893   -0.860840
H      -0.939806    1.511062    0.866253
H       1.575038    0.047461    1.441943
H       2.101981   -4.549329   -0.968462
