12

N       0.023594    1.309401    0.009982
C      -0.022788    0.047281    0.003245
O       1.183440   -0.685642   -0.007344
N       1.208145   -2.063515   -0.014678
C       0.071202   -2.654755   -0.011797
C      -1.195032   -1.924835   -0.001475
N      -1.229710   -0.633955    0.005630
C      -2.402606   -2.681848    0.000590
C      -3.384117   -3.377810    0.001859
H       0.991678    1.632097    0.006761
H       0.098281   -3.738348   -0.017585
H      -4.266835   -3.970587    0.003258
