19

C       0.072178    1.468360    0.411415
C       0.019410    0.058153   -0.193631
C      -1.369726   -0.526360   -0.192959
N      -2.015681   -0.983880    1.072797
C      -1.727163   -1.954081    0.001874
C      -2.959801   -2.269663   -0.833646
N      -3.294737   -0.973792   -1.403115
C      -2.426642    0.046875   -1.125295
O      -2.484685    1.176534   -1.565554
H       1.090908    1.865636    0.377453
H      -0.587468    2.138017   -0.143781
H      -0.252531    1.460843    1.457231
H       0.388293    0.088571   -1.225794
H       0.686813   -0.618629    0.356473
H      -1.287783   -1.056436    1.783333
H      -0.976545   -2.720910    0.156657
H      -2.728377   -3.005242   -1.615378
H      -3.773536   -2.664228   -0.213623
H      -4.135483   -0.798728   -1.928976
