19

C      -0.106708    1.526591   -0.102796
C      -0.020380    0.014809    0.032640
O       0.625917   -0.526814   -1.124501
C       1.166309   -1.801032   -0.788743
C       1.511511   -1.729480    0.691328
C       2.294600   -0.513829    1.179013
C       3.123611    0.342331    0.287947
O       4.142055    0.874012    0.666473
C       0.763966   -0.544203    1.211834
H       0.885704    1.983586   -0.131949
H      -0.636999    1.792119   -1.021410
H      -0.655820    1.948472    0.744450
H      -1.043783   -0.394701    0.104605
H       0.425875   -2.600806   -0.949566
H       2.017353   -1.984265   -1.451963
H       1.609405   -2.653731    1.248278
H       2.756211   -0.632457    2.154673
H       2.763539    0.461044   -0.751209
H       0.294382   -0.539392    2.188510
