16

C       0.013479    1.589159    0.039788
C       1.535177    1.766197    0.004771
O       1.915358    0.980004    1.176720
C       1.557107   -0.144355    0.350072
C       2.062370    0.574512   -0.918859
C       1.198360    0.078156   -2.036837
C       0.035019   -0.328002   -1.509301
C       0.033173    0.012759   -0.035183
H      -0.373197    1.961410    0.990792
H      -0.530984    2.043216   -0.790256
H       1.968187    2.764923   -0.024480
H       1.918106   -1.113420    0.696567
H       3.142027    0.606743   -1.054725
H       1.479844    0.065624   -3.082132
H      -0.822967   -0.713429   -2.047200
H      -0.697656   -0.494499    0.592179
