22

C      -0.034350    1.563422    0.197101
C      -0.058830    0.035339    0.109459
C      -1.468610   -0.529915   -0.094491
C      -1.495137   -2.053034   -0.148832
N      -1.212171   -2.760023    1.136279
C      -2.402389   -3.652466    1.009489
C      -3.297235   -3.762544    2.234600
C      -2.863316   -2.756019   -0.154178
O      -3.884295   -2.615539   -0.759169
H       0.983333    1.937947    0.345187
H      -0.428091    2.019847   -0.717870
H      -0.645752    1.920266    1.033155
H       0.587978   -0.297228   -0.713961
H       0.362307   -0.394063    1.026866
H      -2.120320   -0.197157    0.722478
H      -1.902764   -0.145324   -1.026413
H      -0.883471   -2.410461   -0.993576
H      -0.327981   -3.254539    1.150300
H      -2.159851   -4.655957    0.624550
H      -3.543769   -2.769425    2.619331
H      -4.226317   -4.280112    1.976052
H      -2.800044   -4.324229    3.031552
