21

C      -0.126248    1.511388   -0.400490
C      -0.018133    0.019801   -0.156877
C       1.260941   -0.652515   -0.444025
O       0.893974   -0.332079    0.898879
C      -1.288425   -0.818624   -0.165542
C      -2.406456   -0.332853    0.803098
C      -3.551863    0.058544   -0.142674
O      -3.404570   -0.789855   -1.271057
C      -2.014598   -0.858557   -1.540325
H       0.859414    1.973812   -0.311468
H      -0.521422    1.731047   -1.396942
H      -0.785706    1.985967    0.333038
H       1.273929   -1.715377   -0.684260
H       2.092944   -0.079438   -0.852011
H      -0.988698   -1.830091    0.118218
H      -2.717410   -1.154244    1.452746
H      -2.086601    0.489783    1.446658
H      -4.549243   -0.105160    0.272950
H      -3.471546    1.117827   -0.440240
H      -1.704188   -0.012402   -2.174025
H      -1.826638   -1.780710   -2.096148
