18

C       0.020450    1.400023   -0.002736
O       0.007840   -0.009755    0.022894
C       0.633620   -0.572690   -1.085277
C       0.567089   -2.094177   -0.964624
O       0.042506   -2.652148   -0.033260
N       1.166190   -2.796885   -2.026482
C       1.807040   -2.141269   -3.164571
C       1.150834   -4.194233   -1.997365
O       1.637377   -4.884991   -2.859653
H       1.046694    1.799757   -0.006543
H      -0.507798    1.797705   -0.883520
H      -0.489558    1.740481    0.900496
H       0.151789   -0.261852   -2.029967
H       1.690913   -0.260361   -1.161571
H       2.649234   -1.520953   -2.845486
H       2.175445   -2.933852   -3.815306
H       1.096750   -1.523614   -3.721273
H       0.646122   -4.575070   -1.101370
