14

O      -0.085796    1.449627   -0.074139
C      -0.025081    0.043633    0.037814
C       0.239482   -0.593899    1.450686
C      -1.117755   -1.296971    1.345506
C      -2.203193   -0.272389    1.197204
C      -1.386536   -0.635677   -0.012634
H       0.808941    1.795786    0.004146
H       0.659176   -0.380583   -0.709497
H       1.098268   -1.269336    1.452398
H       0.340063    0.119290    2.275706
H      -1.320924   -2.317744    1.643726
H      -3.217207   -0.658787    1.191336
H      -2.097823    0.709899    1.648966
H      -1.840664   -1.050922   -0.903879
