11

N       0.007597    1.478647    0.048594
C       0.002721    0.014760    0.019442
C       0.826304   -0.515505    1.148154
N       2.001837   -1.060008    1.021047
O       2.381280   -1.369329    2.280336
N       1.364421   -0.980945    3.160596
N       0.443035   -0.471395    2.480535
H       0.909801    1.829128   -0.258270
H      -0.685013    1.836890   -0.600288
H      -1.027573   -0.324948    0.166007
H       0.375254   -0.440056   -0.910035
