15

C      -0.130830    1.434538   -0.103689
N       0.079889   -0.005722   -0.018161
C       1.442795   -0.493860   -0.163842
C       0.757855   -0.505395    1.156777
C       1.135760    0.172113    2.474974
O       0.699127   -1.028442    3.186560
C       0.312723   -1.665998    2.021323
O      -0.164387   -2.745247    1.902890
H       0.706601    2.028965    0.297049
H      -0.271746    1.704396   -1.153898
H      -1.040542    1.700033    0.442661
H       1.561983   -1.419308   -0.719720
H       2.244504    0.235221   -0.283823
H       2.196609    0.363100    2.649703
H       0.533785    1.036854    2.764798
