21

C      -0.034759    1.538104   -0.069855
C       0.021875    0.010287    0.027840
C       0.721017   -0.522077    1.291359
C      -0.008198   -0.140304    2.586377
C       0.886414   -2.039187    1.191746
O       1.654945   -2.498979    2.283685
C       1.825403   -3.894058    2.287484
H       0.969747    1.973730   -0.023816
H      -0.489567    1.852109   -1.014585
H      -0.624450    1.977613    0.740086
H      -0.998291   -0.396045   -0.016492
H       0.542890   -0.381375   -0.855717
H       1.734485   -0.097638    1.327542
H      -1.049415   -0.486198    2.562505
H       0.480796   -0.602635    3.446630
H      -0.019870    0.942037    2.741637
H      -0.104312   -2.529923    1.189311
H       1.380988   -2.307394    0.241865
H       0.862080   -4.425263    2.354114
H       2.345340   -4.246363    1.381847
H       2.429684   -4.149846    3.161590
