16

C      -0.025129    1.568764    0.003911
C       0.023570    0.050872    0.017661
N       1.088196   -0.564529   -0.794645
C       1.775681   -1.143732    0.231972
O       2.803934   -1.757205    0.315103
C       0.705561   -0.628050    1.266672
O       1.219022    0.324597    2.170911
C      -0.068490   -1.672962    1.916295
C      -0.684150   -2.552937    2.456723
H       0.945865    1.993795    0.263206
H      -0.319677    1.928077   -0.987811
H      -0.763583    1.928451    0.726248
H      -0.960590   -0.377132   -0.196060
H       1.308588   -0.486598   -1.776998
H       1.879773   -0.123511    2.712354
H      -1.227067   -3.329113    2.937635
