15

N      -0.076740   -1.162156    0.084116
C      -0.069766   -0.005218    0.054559
C      -0.013421    1.426169    0.015209
C       0.542906    2.210034    1.210937
C       1.342130    2.116179   -0.034483
C       2.687651    1.405499   -0.219508
N       3.370553    2.200927   -1.253221
C       2.597680    3.166051   -1.516099
O       1.402870    3.270571   -0.864891
H      -0.806153    1.909018   -0.545651
H       0.050322    3.149758    1.431480
H       0.875317    1.641362    2.072346
H       3.285770    1.399528    0.698428
H       2.571742    0.367406   -0.546136
H       2.784938    3.960630   -2.228371
