17

N      -0.087319    1.422845    0.208073
C      -0.011271    0.034240   -0.003419
C      -1.026976   -0.851354   -0.313152
C      -2.455648   -1.338623   -0.315111
O      -3.212725   -0.962355   -1.443903
C      -1.816458   -2.793757   -0.325227
N      -0.505738   -2.123572   -0.352096
C       0.812717   -2.119314   -0.037329
C       1.156271   -0.781288    0.138207
H       0.789156    1.887374    0.007431
H      -0.816370    1.855363   -0.344344
H      -3.012574   -1.137281    0.610354
H      -4.128874   -1.215605   -1.289189
H      -1.993945   -3.389975    0.575406
H      -2.035626   -3.378016   -1.223313
H       1.422444   -3.008262   -0.015108
H       2.156193   -0.414453    0.323723
