24

C       0.076201    1.540686    0.176018
C       0.004060    0.010107    0.003204
C       0.640775   -0.640746    1.249718
C      -1.488459   -0.376864   -0.067671
C       0.743492   -0.485937   -1.267051
C       0.515170   -1.946881   -1.636066
C       0.960856    0.434887   -2.448122
C       2.127947    0.039070   -1.574556
H       1.103697    1.916110    0.183463
H      -0.474845    2.067755   -0.608339
H      -0.375985    1.821008    1.133021
H       0.118175   -0.324323    2.159031
H       0.595181   -1.732995    1.210974
H       1.692367   -0.352956    1.349149
H      -1.951032    0.005502   -0.984122
H      -1.634828   -1.460179   -0.041887
H      -2.032143    0.047078    0.783548
H      -0.523356   -2.138844   -1.923247
H       1.143718   -2.225981   -2.487416
H       0.765428   -2.624941   -0.813452
H       0.892376    0.004194   -3.441923
H       0.621771    1.462141   -2.395160
H       2.559097    0.801143   -0.935076
H       2.858374   -0.658948   -1.970526
