11

N      -0.074541    1.297330    0.007546
C       0.000729    0.030631    0.000731
C      -1.167922   -0.953700    0.002600
N      -0.587210   -2.305243   -0.007857
C       0.676183   -2.133804   -0.014437
N       1.114422   -0.815954   -0.010014
H       0.847248    1.737527    0.004382
H      -1.798511   -0.813194    0.886640
H      -1.808963   -0.804087   -0.872388
H       1.404960   -2.938477   -0.022936
H       2.073811   -0.513014   -0.014701
