18

C       0.108858    1.287303   -0.105105
O      -0.057193   -0.136980   -0.040486
C      -1.329418   -0.572429    0.012214
O      -2.290654    0.155822    0.019499
C      -1.397993   -2.104369    0.034909
N      -2.689900   -2.606834    0.469864
C      -1.057136   -2.631209   -1.387139
C      -0.871066   -4.074052   -1.428243
C      -0.688552   -5.261024   -1.459954
H       1.184429    1.459706   -0.137597
H      -0.371768    1.690309   -0.999999
H      -0.329918    1.764329    0.774596
H      -0.621933   -2.466502    0.715564
H      -2.790991   -2.467643    1.470657
H      -3.416465   -2.035000    0.044170
H      -1.868072   -2.338117   -2.066774
H      -0.149726   -2.129978   -1.742209
H      -0.541994   -6.312016   -1.489930
