17

C       0.065614    1.471514   -0.396211
C      -0.041646    0.080870    0.253275
C      -1.412011   -0.512233    0.141360
N      -2.374450   -0.255292    1.035452
N      -3.431282   -0.914578    0.572317
C      -4.684796   -0.960874    1.295192
N      -3.239134   -1.594436   -0.551140
C      -1.960871   -1.348847   -0.845398
H       1.078901    1.871905   -0.293055
H      -0.175863    1.427683   -1.462923
H      -0.629528    2.171747    0.076005
H       0.680109   -0.598963   -0.213039
H       0.225839    0.151063    1.312475
H      -4.898504    0.029499    1.699148
H      -5.463466   -1.262821    0.595849
H      -4.631815   -1.680924    2.117778
H      -1.505054   -1.768926   -1.728314
