19

C       0.501974   -0.607161    1.445798
C       0.062363    0.083899    0.151085
C       0.794105   -0.399969   -1.108214
O       2.223893   -0.578763   -0.919092
C       2.126477   -2.001000   -1.172702
C       0.640907   -1.890944   -1.540004
O      -0.191381   -2.738469   -0.791497
C       0.559797    0.592139   -2.230700
O      -0.324829    0.492918   -3.042712
H       0.257077   -1.670528    1.425955
H       1.580541   -0.498856    1.584655
H      -0.000447   -0.151476    2.304064
H      -1.012215   -0.050850   -0.022323
H       0.224820    1.166215    0.246188
H       2.813248   -2.323905   -1.961733
H       2.294878   -2.591932   -0.265628
H       0.434782   -1.977083   -2.611610
H      -1.075249   -2.708457   -1.170538
H       1.286276    1.435576   -2.242044
