16

C       0.224589    1.490968    0.006785
C       0.105100    0.005490   -0.070387
C      -0.020912   -0.861436   -1.133904
C      -0.065720   -0.538515   -2.598654
O       0.916649    0.416577   -3.000808
N      -0.108778   -2.166548   -0.689688
C      -0.045368   -2.098265    0.617629
N       0.086186   -0.809049    1.044479
H       1.056716    1.801325    0.650591
H       0.409491    1.883841   -0.994215
H      -0.685770    1.960477    0.400408
H       0.026692   -1.480657   -3.156021
H      -1.024016   -0.087120   -2.880770
H       1.771957    0.071424   -2.723155
H      -0.079783   -2.932765    1.302195
H       0.172894   -0.501447    1.999189
