17

O       1.473678    1.313433   -0.477447
C       0.506598    0.343896   -0.059188
C       0.159348   -0.581143   -1.142578
C      -0.093403   -1.332791   -2.045628
C       0.961450   -0.361848    1.191308
C       1.122434   -1.660955    1.422279
C       1.601698   -1.873320    2.828523
O       1.739439   -0.566769    3.381637
C       1.326294    0.412736    2.434360
H       2.258675    0.826905   -0.755792
H      -0.378457    0.949365    0.181118
H      -0.330697   -1.987603   -2.847751
H       0.929422   -2.464272    0.723590
H       0.889771   -2.466055    3.426020
H       2.569125   -2.398327    2.869591
H       2.138445    1.130654    2.254166
H       0.469147    0.985716    2.826461
