22

C      -0.148245    1.562090   -0.030253
C       0.030068    0.044880    0.013642
C       0.966132   -0.517135   -1.052857
C       2.333321   -0.604365   -0.462550
C       2.248674   -0.109555    0.973793
C       0.789276   -0.559326    1.236065
C       0.208378   -0.324954    2.615588
C       0.899962   -2.020259    0.745033
N       1.496654   -1.827277   -0.599611
H       0.807218    2.093427    0.006345
H      -0.650088    1.860890   -0.956840
H      -0.764926    1.914626    0.803203
H      -0.960506   -0.423956   -0.059521
H       0.778967   -0.400269   -2.114362
H       3.242503   -0.564741   -1.050281
H       2.958983   -0.611591    1.639797
H       2.399832    0.969491    1.066362
H       0.179471    0.740590    2.867282
H      -0.815898   -0.708944    2.683771
H       0.802315   -0.828369    3.386512
H       1.559279   -2.637713    1.364175
H      -0.069586   -2.521551    0.656681
