18

C      -0.088358    1.522379   -0.162172
C       0.117860    0.026701   -0.067487
O       1.268024   -0.467545   -0.823791
C       1.738038   -1.176370    0.320213
C       2.101085   -0.230269    1.423158
C       0.652607   -0.627942    1.214974
C      -0.204493   -1.279710    2.271240
C      -0.865867   -0.295427    3.135033
N      -1.385925    0.497091    3.795810
H       0.778890    2.073165    0.210139
H      -0.258284    1.812989   -1.203521
H      -0.965044    1.816691    0.424067
H      -0.778622   -0.506073   -0.414602
H       2.141208   -2.172655    0.177641
H       2.564096   -0.684652    2.294461
H       2.457046    0.766543    1.183144
H      -0.978593   -1.905822    1.810188
H       0.401015   -1.941492    2.900867
