16

C      -0.297960    1.392459   -0.055123
C      -0.263115   -0.118186   -0.003865
C       0.883728   -0.881363   -0.501157
O       0.690546   -0.696051    0.910418
C      -1.599944   -0.811761    0.009101
N      -1.973507   -1.570469   -0.922981
O      -2.454647   -0.481225    1.056659
C      -2.003858   -0.450150    2.356172
O      -2.721429   -0.097011    3.237114
H       0.720822    1.784864   -0.023235
H      -0.781251    1.731494   -0.976781
H      -0.854688    1.807588    0.790056
H       0.730746   -1.892124   -0.867832
H       1.731126   -0.342431   -0.920065
H      -2.915492   -1.925858   -0.742907
H      -0.966913   -0.796757    2.461719
