16

O       0.201518    1.330268    0.180811
C       0.099845   -0.003261   -0.005397
C       0.247936   -0.827953   -1.099674
C      -0.008293   -2.123814   -0.576557
N      -0.285239   -2.105333    0.720971
N      -0.213426   -0.780881    1.051176
N      -0.042453   -3.307406   -1.326111
C       1.223395   -3.993003   -1.611173
C       0.245955   -4.560524   -0.641188
H       0.399344    1.744407   -0.664704
H       0.486725   -0.553470   -2.113522
H      -0.415181   -0.481693    1.988864
H       1.313826   -4.404060   -2.612345
H       2.131970   -3.555685   -1.204276
H       0.491905   -4.501318    0.414398
H      -0.383758   -5.397176   -0.928414
