20

C      -0.025507    1.521928    0.055314
C       0.039803    0.013291    0.052797
C       0.955301   -0.796127   -0.918100
C       0.729971   -1.933705    0.114905
C       0.711847   -0.814757    1.192739
C      -0.768124   -2.238381   -0.062490
C      -1.305627   -0.759910   -0.131949
C      -2.299793   -0.443959    0.887248
N      -3.077237   -0.184858    1.703541
H       0.969589    1.955760    0.194135
H      -0.427511    1.902634   -0.890922
H      -0.669959    1.888029    0.861655
H       0.615347   -0.949760   -1.947729
H       1.979745   -0.416893   -0.914299
H       1.399454   -2.790444    0.184104
H       1.710641   -0.439980    1.427964
H       0.145861   -0.982879    2.113499
H      -0.988076   -2.788652   -0.980746
H      -1.192059   -2.790306    0.779232
H      -1.745423   -0.536447   -1.109424
