20

C      -0.081808    1.513159    0.027799
C       0.072383    0.023286   -0.023305
C       0.588288   -0.924306   -1.085547
C       1.380089   -1.729656   -0.048294
C       0.686176   -0.881034    1.073373
O      -0.266600   -1.526867    1.895565
C      -1.092803   -2.423885    1.166951
C      -1.670962   -1.792075   -0.116333
N      -0.834117   -0.798018   -0.796644
H       0.867812    2.002431    0.271100
H      -0.434478    1.892275   -0.935176
H      -0.810550    1.804090    0.793657
H       0.908410   -0.704233   -2.098622
H       1.269134   -2.815745   -0.036251
H       2.446751   -1.493301   -0.094237
H       1.383801   -0.382739    1.749206
H      -0.536077   -3.342390    0.935323
H      -1.908184   -2.701342    1.841272
H      -1.931634   -2.580372   -0.831087
H      -2.599248   -1.264535    0.131647
