14

N       0.146268    1.472324   -0.059536
C       0.000768    0.069730   -0.021076
C      -0.252789   -0.820842   -1.214712
C      -1.135999   -0.950083   -0.010163
O      -0.501956   -1.756162    0.989839
C       0.584465   -0.803251    1.108002
C       1.907333   -1.396147    0.908009
N       2.956201   -1.847468    0.729220
H       0.143377    1.849129   -0.996759
H      -0.524011    1.971247    0.512201
H      -0.704545   -0.299618   -2.054378
H       0.431956   -1.621317   -1.481623
H      -2.216018   -0.875037    0.009715
H       0.547679   -0.301165    2.081705
