13

N      -0.025274    1.335338    0.010193
C       1.148738    2.023055    0.001960
N       2.328239    1.462989   -0.012968
C       2.414660    0.104409   -0.021070
C       1.286008   -0.679732   -0.013808
N       1.045222   -2.027871   -0.018533
C      -0.282515   -2.078393   -0.005362
N      -0.989690   -0.890664    0.008110
C       0.000660   -0.021959    0.002710
H      -0.912573    1.824071    0.021777
H       1.062103    3.104290    0.008587
H       3.415784   -0.315564   -0.033441
H      -0.816056   -3.021307   -0.004977
