20

C      -0.416611    1.501261    0.141412
C      -0.017415    0.033231    0.009129
C      -1.198059   -0.830606   -0.442679
C       1.276409   -0.223685   -0.844359
C       1.903807   -0.949110    0.362721
O       2.920692   -1.555259    0.539414
C       0.727967   -0.574066    1.234693
C       0.791909   -0.063501    2.633936
N       0.210968   -1.376310    2.346315
H       0.429243    2.118180    0.460417
H      -0.779573    1.894146   -0.814873
H      -1.222210    1.631207    0.873674
H      -1.572597   -0.496603   -1.416198
H      -0.913331   -1.883853   -0.532670
H      -2.031755   -0.768949    0.267031
H       1.150997   -0.843514   -1.736396
H       1.822877    0.682849   -1.122649
H       1.742280   -0.090000    3.159834
H       0.137084    0.763935    2.896136
H      -0.806310   -1.319997    2.354403
