16

C      -0.055441    1.612342   -0.032656
C       0.129216    0.098705    0.038018
C       1.385365   -0.731514   -0.214085
C       2.658425   -0.171832    0.487010
O       2.345898    1.055518    1.169702
C       2.005248   -0.190548    1.788917
C       0.692277   -0.761205    1.138816
O       0.032243   -1.836224    1.704442
H       0.688606    2.079227   -0.681334
H      -1.046284    1.845245   -0.436930
H       0.031008    2.084172    0.947228
H      -0.705215   -0.450830   -0.398105
H       1.420606   -1.505643   -0.969603
H       3.689187   -0.335573    0.198239
H       2.374854   -0.397672    2.786601
H      -0.667842   -1.495715    2.273378
