21

C       0.004069    1.563456   -0.065566
C      -0.015844    0.025774   -0.018267
C      -1.482685   -0.456287   -0.024050
C       0.736773   -0.594802   -1.187143
C       1.592099   -1.553977   -0.834681
C       1.631808   -1.737550    0.658309
O       2.814946   -1.175469    1.284904
C       2.082568    0.006224    1.673903
C       0.736483   -0.589566    1.192992
H       1.019586    1.961574   -0.136894
H      -0.553193    1.925890   -0.936523
H      -0.467128    1.989553    0.827099
H      -1.987892   -0.168811   -0.952577
H      -1.538884   -1.545788    0.063320
H      -2.040269   -0.015668    0.810390
H       0.544208   -0.275808   -2.207996
H       2.210123   -2.132266   -1.512388
H       1.471236   -2.768944    0.992189
H       2.162420    0.191047    2.751300
H       2.429181    0.896804    1.136608
H       0.065097   -0.843709    2.014562
