20

C       0.472263    1.055864    0.617482
C       0.252286   -0.408243    0.251594
N       0.463970   -0.623175   -1.176881
C       0.215691   -1.959730   -1.646056
C      -0.480874   -1.948890   -3.006817
O      -0.897549   -0.943850   -3.521876
C       1.461374   -2.869993   -1.783531
C       2.817750   -2.216753   -1.675582
O       1.301665   -4.047645   -2.005170
H       1.481745    1.375979    0.344053
H      -0.240419    1.701745    0.092295
H       0.334460    1.211700    1.691176
H       0.962145   -1.036250    0.806055
H      -0.756095   -0.726471    0.575975
H      -0.096508    0.019929   -1.730347
H      -0.475278   -2.539311   -1.003037
H      -0.574708   -2.946699   -3.475745
H       2.964459   -1.812399   -0.668507
H       3.592404   -2.951334   -1.898324
H       2.880534   -1.360749   -2.354010
