19

C      -0.091327    1.550033    0.022371
C      -0.035460    0.036669    0.038151
C       1.266913   -0.700171   -0.233550
C       0.712771   -0.725866    1.167826
C       1.406200    0.073272    2.265487
C       0.151208   -1.966272    1.647254
C      -0.279744   -2.991944    2.104972
C      -1.257069   -0.624621   -0.506717
O      -2.217558   -0.021410   -0.919279
H       0.873297    2.002853    0.256566
H      -0.397343    1.890102   -0.970660
H      -0.833656    1.924550    0.733257
H       1.225840   -1.616123   -0.813037
H       2.143219   -0.086715   -0.414407
H       1.907745    0.957645    1.869219
H       0.689743    0.392545    3.027821
H       2.158791   -0.553534    2.752792
H      -0.672384   -3.898038    2.495535
H      -1.221353   -1.733870   -0.523534
