16

O       0.032397    0.036048    0.230633
C      -0.009062    1.220870    0.044015
C      -1.260134    2.063344   -0.245812
C      -0.711858    3.351358   -0.882976
N       0.732799    3.475212   -0.546919
C       0.998864    3.376831    0.871824
C       1.181237    2.159936   -0.004403
C       2.477446    1.646049   -0.324206
C       3.558957    1.189254   -0.578425
H      -1.927462    1.504147   -0.903642
H      -1.803626    2.231311    0.690250
H      -0.779766    3.302821   -1.973095
H      -1.227745    4.257684   -0.554821
H       1.898931    3.879505    1.210913
H       0.172255    3.380464    1.579804
H       4.514175    0.787457   -0.810569
