18

C       0.007985    1.359561   -0.268862
N       0.021395   -0.072542   -0.016046
C      -1.239677   -0.663147    0.418575
C      -1.293091   -2.154112    0.266009
C      -0.202320   -2.890721    0.098606
C       1.161137   -2.267173    0.129608
O       2.061288   -2.964632   -0.694580
C       1.143437   -0.788119   -0.281626
O       2.148985   -0.316282   -0.799056
H       1.017329    1.670432   -0.533433
H      -0.672227    1.605292   -1.093874
H      -0.324249    1.899636    0.625433
H      -1.450156   -0.374267    1.462451
H      -2.042853   -0.208439   -0.179112
H      -2.281819   -2.600405    0.303033
H      -0.241936   -3.968074   -0.025426
H       1.524120   -2.277017    1.177410
H       2.665995   -2.279131   -1.022284
