16

O       0.008310   -0.038533    0.004262
C      -0.017984    1.171111    0.010430
N      -1.133103    1.964037    0.029304
C      -0.862417    3.397291    0.032286
C       0.012899    3.698106    1.258860
O       1.200467    2.901351    1.170597
C       1.208142    2.109401   -0.001772
O       1.168870    2.912355   -1.165989
C      -0.020650    3.709601   -1.214722
H      -2.058405    1.564395    0.039780
H      -1.792641    3.966480    0.047547
H       0.296813    4.757601    1.279940
H      -0.515732    3.452764    2.187366
H       2.138030    1.545011   -0.017006
H      -0.574264    3.472691   -2.130778
H       0.262624    4.769304   -1.233744
