16

C      -0.655173    1.388987    0.277419
C      -0.006417    0.053661   -0.011816
N       0.190194   -0.735388    1.090134
N       0.346553   -0.436857   -1.148651
C       0.112570    0.181468   -2.349191
N       0.700213   -0.297301   -3.448870
N       0.228781    0.530643   -4.411889
C      -0.605328    1.445211   -3.886137
N      -0.710761    1.265375   -2.587297
H      -0.134898    2.188143   -0.251812
H      -1.681454    1.395856   -0.096282
H      -0.665141    1.601668    1.350112
H       0.232776   -0.312683    2.001025
H       0.741137   -1.567251    0.943247
H       0.511418    0.395261   -5.367824
H      -1.103631    2.202307   -4.474005
