20

C      -0.065912    1.535127   -0.012560
C       0.088834    0.010074   -0.019139
C       0.969052   -0.472871    1.143403
C       1.176432   -1.968191    1.173014
C       1.269426   -2.715303    2.433068
O       0.071104   -2.753994    1.653039
N      -1.211718   -0.660901    0.054301
C      -2.077740   -0.674601   -0.989168
O      -1.930078   -0.061370   -2.028255
H       0.911504    2.018783   -0.111984
H      -0.695078    1.845024   -0.848118
H      -0.526914    1.873465    0.921511
H       0.558445   -0.279548   -0.969417
H       1.944445    0.021534    1.066323
H       0.523416   -0.155676    2.094766
H       1.658472   -2.396409    0.292907
H       1.824851   -3.650577    2.471111
H       1.194870   -2.180636    3.379024
H      -1.355584   -1.321402    0.804472
H      -2.960863   -1.313389   -0.786419
