16

C      -0.105767    1.371253    0.041400
N       0.082331   -0.074802   -0.057686
C       0.748871   -0.523904   -1.290328
C       1.487968   -0.515646    0.003490
C       1.589682   -1.955479    0.450924
O       2.156525   -2.412150    1.410592
N       0.893198   -2.690958   -0.507585
C       0.441262   -1.956239   -1.609838
N      -0.091021   -2.352593   -2.689763
H       0.702064    1.958056   -0.424406
H      -1.050372    1.634510   -0.442826
H      -0.169861    1.645619    1.098120
H       0.929418    0.177471   -2.095274
H       2.270809    0.187816    0.259328
H       0.760817   -3.685788   -0.403313
H      -0.204983   -3.367750   -2.711370
