17

C      -0.571528    1.032360    0.109299
O       0.529075    0.165560   -0.095279
C       0.965307   -0.449551    1.073441
C       0.259480   -1.693675    1.557964
C       1.631868   -1.784202    0.920636
C       1.783649   -2.379238   -0.470727
C       1.773276   -3.842554   -0.457398
N       1.767090   -4.997915   -0.436264
H      -0.315641    1.849675    0.799378
H      -0.830012    1.456776   -0.863148
H      -1.440057    0.494437    0.513961
H       1.366001    0.238462    1.819510
H       0.164553   -1.873304    2.622707
H      -0.578967   -2.038835    0.961724
H       2.465074   -1.986246    1.585964
H       0.977326   -2.019463   -1.116070
H       2.720837   -2.042994   -0.929525
