15

O      -0.940041    1.254449   -0.168695
C       0.185027    0.870419    0.054841
C       1.377187    1.764090    0.017456
C       1.253477    3.066659   -0.293999
C       2.418881    3.999322   -0.301537
O       3.532251    3.504477    0.406681
C       3.881217    2.177906    0.060534
C       2.726746    1.192271    0.240008
O       2.920817    0.017918    0.474466
H       0.406961   -0.183285    0.303322
H       0.270940    3.456279   -0.554020
H       2.679317    4.236033   -1.352585
H       2.146233    4.949659    0.171082
H       4.223836    2.111140   -0.988243
H       4.710323    1.880255    0.705141
