16

C       0.037439    1.502552    0.006775
C       0.022688    0.047733    0.035571
C       0.012927   -1.156837    0.051445
C       0.001800   -2.586813    0.079078
C      -0.478537   -3.373233    1.285544
O      -1.288834   -2.671285    2.208916
C      -2.407381   -2.331960    1.511461
N      -2.523153   -2.727443    0.308294
C      -1.294083   -3.416168    0.009053
H       0.891726    1.876368   -0.568517
H      -0.872204    1.901018   -0.456159
H       0.109551    1.922830    1.016174
H       0.831289   -3.075626   -0.425996
H       0.110987   -4.157283    1.742406
H      -3.127551   -1.745176    2.066806
H      -1.346161   -4.246625   -0.683752
