20

O       0.769668    0.852546   -0.445521
C       0.229595   -0.244256    0.247007
C      -0.202035   -0.110008    1.730391
C      -1.365460   -1.089621    1.416173
C      -1.195745   -0.754595   -0.090781
C      -2.233415    0.231365   -0.702909
C      -2.842017   -0.957806   -1.494688
C      -1.548547   -1.766357   -1.204900
H       0.181818    1.603801   -0.312652
H       0.957656   -1.054363    0.125976
H       0.518153   -0.380041    2.505906
H      -0.575099    0.899664    1.936272
H      -1.094351   -2.127615    1.632956
H      -2.337716   -0.881461    1.869706
H      -2.887842    0.773497   -0.013942
H      -1.750210    0.951818   -1.371997
H      -3.712465   -1.382483   -0.987499
H      -3.104044   -0.780023   -2.540175
H      -0.834722   -1.712061   -2.033636
H      -1.659107   -2.813442   -0.908431
