18

C      -0.003015    1.249831    0.023409
C      -0.294859   -0.250701   -0.067421
N       0.057745   -0.835335   -1.351506
C       1.318475   -1.287257   -1.609762
O       2.208490   -1.347281   -0.783248
N       1.473712   -1.656329   -2.976271
C       2.527602   -2.607568   -3.283513
C       1.100209   -3.022203   -3.371726
H       1.064407    1.436820   -0.121116
H      -0.558014    1.810158   -0.736723
H      -0.291196    1.637229    1.006104
H       0.279543   -0.788118    0.690608
H      -1.356752   -0.447465    0.116611
H      -0.525509   -0.643598   -2.150361
H       3.088334   -2.397068   -4.189123
H       3.109321   -2.967829   -2.440692
H       0.721637   -3.681755   -2.594815
H       0.604483   -3.112497   -4.334209
