21

C      -0.311728    1.507295    0.144008
C       0.025499    0.015372    0.085331
C       0.500192   -0.428258   -1.305129
C       0.858731   -1.910297   -1.356136
C       1.447949   -2.542738   -2.657903
O       2.029345   -1.524125   -3.445496
C       2.491025   -3.335103   -1.808362
C       2.117568   -2.418444   -0.628722
O       2.650719   -2.138753    0.405836
H       0.562917    2.119583   -0.101829
H      -1.104621    1.764309   -0.567674
H      -0.652109    1.799730    1.142230
H       0.802937   -0.223154    0.819158
H      -0.857848   -0.571990    0.371290
H      -0.279980   -0.223857   -2.049953
H       1.372168    0.160270   -1.608227
H       0.009383   -2.520838   -1.018681
H       0.749239   -3.152673   -3.242535
H       2.531333   -1.940202   -4.153296
H       2.206993   -4.375742   -1.619431
H       3.530314   -3.299509   -2.144896
