12

N      -0.027493    1.379351   -0.136141
C       0.050966   -0.011513   -0.050187
N      -1.048043   -0.746340    0.055638
N      -0.583610   -2.036603    0.024234
C       0.756804   -2.095140   -0.078706
O       1.353839   -3.306391   -0.111109
C       1.230815   -0.800393   -0.133856
H       0.689826    1.851921    0.397744
H      -0.944430    1.708538    0.139984
H      -1.224897   -2.806762    0.086924
H       2.302146   -3.178709   -0.209590
H       2.252538   -0.474822   -0.240848
