18

O       0.032926    1.412060    0.102534
C       0.047434    0.004616   -0.006455
C      -1.363020   -0.568607   -0.028368
C      -1.426238   -2.095515   -0.115553
C      -2.870549   -2.550376    0.118329
O      -3.380333   -1.992405    1.323302
C      -3.300074   -0.595149    1.304138
O      -1.978748   -0.131120    1.189775
H      -0.554115    1.611412    0.841625
H       0.561160   -0.243583   -0.941232
H       0.605796   -0.461661    0.821529
H      -1.912653   -0.123844   -0.875995
H      -1.071924   -2.439417   -1.093810
H      -0.780124   -2.529490    0.655592
H      -3.504880   -2.245171   -0.731336
H      -2.942562   -3.635624    0.223074
H      -3.906874   -0.193445    0.469475
H      -3.685238   -0.235992    2.260489
