15

O       0.098927    1.454997   -0.172876
C       0.024742    0.074442   -0.004296
C       0.383509   -0.856334   -1.186888
N      -0.793646   -1.697385   -0.851292
C      -1.370097   -0.641440    0.033097
C      -1.091742   -1.051533    1.490077
O      -1.733298   -1.556614    2.361587
C       0.351339   -0.490068    1.416136
H       0.996885    1.742157    0.026050
H       0.294995   -0.312724   -2.136199
H       1.342538   -1.386518   -1.158177
H      -1.384332   -1.953567   -1.631691
H      -2.318130   -0.185821   -0.259463
H       1.150761   -1.231767    1.486664
H       0.517815    0.297462    2.158064
