17

C      -0.088983    1.483564   -0.195469
N       0.092436    0.042992   -0.073046
C       1.431406   -0.491152   -0.115494
C       0.663311   -0.510201    1.178842
C       1.077990    0.368173    2.342354
C       0.015381   -1.828123    1.514357
O      -0.229464   -2.691340    0.709945
C      -0.327166   -2.045313    2.938958
N      -0.603816   -2.218669    4.048457
H       0.758666    2.087277    0.160114
H      -0.241671    1.709173   -1.255160
H      -0.988700    1.786095    0.347862
H       1.552836   -1.418819   -0.667389
H       2.269866    0.204431   -0.157568
H       1.615332    1.252977    1.999433
H       0.213621    0.696994    2.927985
H       1.744142   -0.177921    3.017011
