13

O       0.010148   -0.032272    0.003272
C      -0.037160    1.184335    0.006643
C       1.171902    1.989315    0.000640
C       2.201218    2.612003   -0.004618
C      -1.323712    1.904239    0.017129
N      -1.390722    3.240516    0.020958
N      -2.698784    3.501073    0.030431
C      -3.476689    2.382522    0.032851
C      -2.612594    1.315519    0.024302
H       3.108653    3.164812   -0.009149
H      -3.002689    4.461240    0.034911
H      -4.553246    2.443624    0.040270
H      -2.845446    0.264692    0.023198
