15

C      -0.078127    1.471957   -0.025374
C       0.077335   -0.037592    0.008607
O       1.144783   -0.592223    0.001566
C      -1.239941   -0.814791    0.047951
O      -0.985186   -2.191669   -0.023317
C      -2.162760   -2.957204    0.030648
C      -1.820159   -4.380043   -0.052731
N      -1.593333   -5.509923   -0.116302
H       0.895667    1.940485    0.119233
H      -0.484066    1.782400   -0.995406
H      -0.777627    1.819650    0.742424
H      -1.771944   -0.547863    0.979091
H      -1.881323   -0.475046   -0.784827
H      -2.717477   -2.785043    0.967923
H      -2.846045   -2.713203   -0.799689
