17

N       0.001666   -1.141382   -0.044811
C       0.010282    0.014092   -0.028803
C       0.065311    1.460801    0.016967
C      -0.288907    2.290389    1.298944
C       0.493833    3.389671    0.493448
C       1.420724    2.231859    0.043107
C      -0.484353    3.550523   -0.678938
C      -0.182691    2.951029   -2.003770
N      -0.848501    2.131892   -0.972920
H      -1.354105    2.444505    1.478558
H       0.225465    1.945572    2.196962
H       0.881803    4.289981    0.965570
H       2.052073    1.876601    0.857351
H       2.014571    2.315134   -0.865557
H      -1.306006    4.252669   -0.568485
H      -0.845584    3.189773   -2.830401
H       0.834594    2.738780   -2.309006
