19

O      -0.970700    1.531211   -0.312153
C       0.054464    0.900389   -0.300069
C       1.408269    1.468015    0.084363
C       1.419287    2.518246    1.204979
C       2.093320    1.406900    2.046954
O       2.141915    0.518971    0.885431
C       3.445931    1.674112    2.626438
C       3.559497    2.107777    4.070212
C       4.020329    0.735487    3.658226
H       0.089731   -0.180500   -0.564851
H       1.947984    1.726260   -0.839722
H       2.059628    3.380588    1.015014
H       0.433189    2.854445    1.526000
H       1.435610    0.980097    2.817416
H       4.149213    2.117365    1.926449
H       4.305105    2.854225    4.318613
H       2.645947    2.184969    4.650747
H       3.416701   -0.115158    3.956674
H       5.085005    0.535005    3.625283
