16

C       0.056132    1.544302   -0.069453
C       0.056559    0.037512   -0.035533
C       0.058193   -0.725714   -1.205688
O       0.059379   -0.155646   -2.435018
C       0.058679   -2.123196   -1.140071
C       0.057421   -2.706994    0.112245
N       0.055738   -2.014075    1.258295
C       0.055321   -0.690106    1.162743
O       0.053592   -0.001673    2.329361
H       0.941491    1.943049   -0.583125
H      -0.830965    1.942715   -0.580360
H       0.057657    1.948888    0.942396
H       0.058657    0.803392   -2.343831
H       0.059978   -2.710257   -2.049343
H       0.057740   -3.789257    0.211288
H       0.053171   -0.676028    3.022742
