15

N       0.059362    0.972324   -0.790068
C      -0.039092    0.058715    0.209287
O       0.796776   -0.102865    1.080126
C      -1.271762   -0.784078    0.168181
C      -1.815011   -1.450804    1.400154
C      -1.286166   -2.317392    0.289790
N      -2.241266   -2.765401   -0.693635
C      -2.704938   -1.719277   -1.243894
O      -2.214377   -0.502138   -0.863585
H       0.875352    1.559308   -0.827387
H      -0.661040    1.060986   -1.485204
H      -1.175928   -1.346695    2.268842
H      -2.885620   -1.420340    1.570842
H      -0.393996   -2.913187    0.434101
H      -3.468640   -1.679778   -2.010409
