16

N      -0.081764    1.289682    0.120086
C       0.048624   -0.068560    0.048977
O       1.100723   -0.664105    0.143013
C      -1.266698   -0.751657   -0.185731
O      -1.711641   -1.675405    0.829634
C      -1.602456   -2.146928   -0.518069
C      -2.901267   -1.734573   -1.218454
C      -2.553600   -0.237251   -0.853184
O      -3.413594    0.507489   -0.031798
H       0.730059    1.828230    0.378051
H      -0.992659    1.706386    0.234705
H      -0.933824   -2.978808   -0.698966
H      -2.908269   -1.910999   -2.296125
H      -3.812677   -2.135727   -0.769553
H      -2.361449    0.363919   -1.744776
H      -3.501889    0.004270    0.788555
