17

O       0.089214    1.376779    0.010928
C      -0.020530   -0.006716   -0.017391
C      -1.344662   -0.700258    0.075212
C      -2.595949    0.168680    0.100614
C      -3.049209    0.511672   -1.312995
O      -1.955412    0.981227   -2.134969
C      -0.959256    0.063759   -2.396830
O      -0.424937    0.054276   -3.468941
C      -0.552980   -0.767886   -1.237324
H      -0.506875    1.763549   -0.643367
H       0.831450   -0.455712    0.480932
H      -1.378984   -1.620194    0.649081
H      -3.409324   -0.349957    0.616426
H      -2.393707    1.089069    0.660832
H      -3.496782   -0.361903   -1.801982
H      -3.781768    1.321332   -1.325971
H      -0.040083   -1.680557   -1.512874
