14

C       0.059155   -1.217457    0.110896
C       0.071499   -0.018818    0.021428
C       0.047326    1.393800   -0.128007
C      -0.747157    2.227357   -1.151853
C       0.414204    3.294602   -1.112770
C       0.085282    4.658337   -0.729287
N      -0.175616    5.743512   -0.429390
C       1.116983    2.418651   -0.049742
O       0.217979    2.238165    1.028730
H       0.054564   -2.276006    0.201400
H      -0.836007    1.755989   -2.130966
H      -1.722650    2.563080   -0.799551
H       0.968479    3.301272   -2.054709
H       2.179076    2.333523    0.146410
