14

C       0.136398    1.481550    0.019815
C       0.044718    0.033508   -0.059604
C      -0.043739   -1.167017   -0.128960
C      -0.216489   -2.608577   -0.231324
O      -1.256181   -3.131724   -0.548501
N       0.962579   -3.289011    0.081673
C       1.206649   -4.659671    0.101351
N       0.347763   -5.547949   -0.177416
H       0.903089    1.863972   -0.662564
H      -0.816585    1.950861   -0.244971
H       0.401594    1.802510    1.032919
H       1.742273   -2.699020    0.326795
H       2.247929   -4.849726    0.392845
H       0.771868   -6.470350   -0.089696
