20

C      -0.520893    1.551823   -0.271425
C      -0.085653    0.103858   -0.128424
C      -1.251543   -0.847370    0.165387
N      -1.767386   -0.620735    1.500782
C      -3.078423   -0.396176    1.774356
O      -3.975294   -0.387420    0.956804
C       0.916543   -0.430197   -1.182181
C       1.859229   -0.646490    0.016233
O       0.915076   -0.045909    0.930078
H       0.350454    2.200322   -0.395140
H      -1.172894    1.669193   -1.143595
H      -1.072950    1.881317    0.613290
H      -2.077737   -0.699944   -0.534423
H      -0.903983   -1.884307    0.067369
H      -1.087415   -0.578850    2.244872
H      -3.245247   -0.220653    2.855787
H       0.605222   -1.327402   -1.720482
H       1.251678    0.320986   -1.898773
H       2.064653   -1.693884    0.269274
H       2.807100   -0.097526   -0.005852
