17

C      -0.227236    1.205157   -0.965690
C      -0.007893   -0.086835   -0.340325
C       0.176561   -1.158866    0.182595
C       0.350976   -2.431247    0.848891
O      -0.349540   -2.779742    1.777765
C       1.460066   -3.324411    0.336309
C       1.832542   -4.478861    1.232157
C       1.665156   -3.396202   -1.127959
O       2.537075   -2.630133   -0.311134
H       0.705679    1.614852   -1.366542
H      -0.938072    1.115905   -1.794742
H      -0.639457    1.924024   -0.249968
H       0.965406   -5.120288    1.406183
H       2.632954   -5.065144    0.775420
H       2.173661   -4.114353    2.205204
H       2.083540   -4.313948   -1.539605
H       1.027079   -2.821805   -1.796698
