16

N       0.047988    1.179757   -0.338525
C       0.038203   -0.028961   -0.014082
O       1.019534   -0.849232    0.499510
C       0.128343   -2.009943    0.503368
C      -1.032311   -1.119231    0.001007
C      -2.267917   -0.857556    0.889164
O      -3.310147   -1.537434    0.208538
C      -2.990163   -1.382107   -1.146057
O      -1.576818   -1.505504   -1.239146
H       0.967441    1.604684   -0.207005
H       0.452129   -2.761565   -0.219042
H       0.039182   -2.434974    1.505966
H      -2.182689   -1.262508    1.898891
H      -2.461335    0.223437    0.939505
H      -3.460859   -2.181328   -1.724154
H      -3.301810   -0.392790   -1.521096
