17

C      -0.037986    1.435558   -0.136120
N       0.027238   -0.016255   -0.103858
C      -1.022360   -0.668777    0.179167
O      -2.215388    0.001997    0.454125
N      -3.398800   -0.658544    0.770435
C      -3.357642   -1.942179    0.802764
C      -2.193346   -2.768710    0.540578
C      -2.320883   -4.261492    0.621924
C      -1.057717   -2.114543    0.236221
H       0.947050    1.829369   -0.396579
H      -0.765671    1.798202   -0.874585
H      -0.336418    1.855153    0.834071
H      -4.310607   -2.400585    1.055045
H      -2.647293   -4.574059    1.620817
H      -3.070756   -4.630958   -0.087465
H      -1.370275   -4.752205    0.402601
H      -0.123232   -2.619158    0.020494
