16

N      -0.032506    1.408075    0.140409
C       0.002315    0.018007    0.044987
C      -1.179119   -0.733663    0.036951
C      -1.137945   -2.127279    0.003180
C      -2.410589   -2.882810   -0.005656
O      -2.501445   -4.087962   -0.037582
C       0.086271   -2.804129   -0.024498
C       1.259928   -2.063160   -0.018027
C       1.223651   -0.671165    0.015563
H       0.787602    1.882182   -0.208141
H      -0.881478    1.839667   -0.193941
H      -2.141852   -0.228155    0.060731
H      -3.321807   -2.241865    0.019915
H       0.087736   -3.886812   -0.051805
H       2.221289   -2.565992   -0.041617
H       2.151282   -0.105814    0.022438
