18

C       0.226302    1.446024   -0.071370
C       0.028910   -0.033195    0.030859
C      -1.013363   -0.713672    0.876725
C       0.443614   -1.047733    1.070151
C       1.009166   -1.911127   -0.069447
C       0.056786   -2.185642   -1.179659
N       0.631378   -0.847833   -1.115258
C       2.374275   -2.485652   -0.072823
O       2.884664   -3.018871   -1.028501
H       1.267683    1.682243   -0.310526
H      -0.402661    1.866998   -0.864453
H      -0.037526    1.938861    0.869022
H      -1.411552   -0.060356    1.647611
H      -1.742396   -1.428693    0.512488
H       0.972167   -0.895519    2.003079
H       0.477248   -2.763902   -1.996831
H      -0.994554   -2.360665   -0.983689
H       2.915079   -2.398419    0.896644
