24

C       0.343298    1.306181    0.440133
C       0.099396   -0.173750    0.777927
C       0.190467   -0.412440    2.292191
C      -1.252662   -0.598357    0.227140
C      -1.413002   -0.991909   -1.201636
N      -1.620780   -1.971875   -0.143997
C      -0.696032   -3.099286   -0.023224
C      -1.166010   -3.984880    1.133163
O      -2.514398   -4.362424    0.961180
H       1.312058    1.639632    0.825653
H       0.329099    1.476885   -0.640572
H      -0.428571    1.942170    0.889170
H       0.883574   -0.759900    0.283228
H       1.160785   -0.087964    2.681867
H      -0.585640    0.152964    2.821122
H       0.061449   -1.468572    2.545153
H      -2.082800   -0.064554    0.692655
H      -2.292295   -0.707647   -1.774796
H      -0.498525   -1.073184   -1.789564
H      -0.764255   -3.674686   -0.953579
H       0.356397   -2.809629    0.112342
H      -0.564896   -4.900286    1.170949
H      -1.018481   -3.454399    2.089587
H      -2.952088   -3.556994    0.650166
