11

O       0.101569    1.309795    0.118204
C       0.069499   -0.027875    0.061082
N       0.086703   -0.580485   -1.156386
C       0.053886   -1.913173   -1.186815
C       0.004902   -2.684159   -0.032269
C      -0.008232   -1.982887    1.169905
N       0.023599   -0.652748    1.236286
H       0.132750    1.617942   -0.797743
H       0.067593   -2.371578   -2.173085
H      -0.021476   -3.765316   -0.065683
H      -0.045830   -2.506374    2.122895
