20

C      -0.018826    1.459198    0.129272
C      -0.042676   -0.027680    0.022093
C      -0.040518   -0.855861   -1.039525
C      -0.013660   -0.597971   -2.507729
C       0.033678   -2.233805   -0.373852
N      -0.888337   -2.138718    0.813221
C       0.030261   -1.008516    1.196823
C       1.179972   -1.972858    0.688356
O       1.522078   -3.032792    1.515978
H       0.888191    1.808379    0.639567
H      -0.050270    1.937563   -0.853974
H      -0.868029    1.836530    0.713456
H      -0.044843    0.472116   -2.732525
H       0.894403   -1.007797   -2.968654
H      -0.861697   -1.072943   -3.017681
H      -0.008343   -3.136905   -0.984949
H      -1.819244   -1.807959    0.553165
H      -0.015330   -0.635646    2.221365
H       2.096523   -1.505777    0.325990
H       0.678016   -3.408189    1.806988
