19

N      -0.082689   -1.162150    0.319341
C      -0.072897   -0.007918    0.263831
C      -0.032694    1.449562    0.189081
C       1.360834    1.974880   -0.217606
N       1.383717    3.418848   -0.236128
C       0.624359    4.071479   -1.311073
C       1.385108    5.348953   -1.542766
C       2.547089    5.326674   -0.898654
C       2.718300    4.030191   -0.156571
H      -0.789662    1.781204   -0.529931
H      -0.307768    1.872718    1.160797
H       2.090965    1.623220    0.517878
H       1.642622    1.526558   -1.189673
H       0.590039    3.461842   -2.237003
H      -0.420209    4.248353   -1.016699
H       1.010233    6.145236   -2.173253
H       3.303099    6.101549   -0.903586
H       3.025576    4.167136    0.890062
H       3.501260    3.410847   -0.635717
