16

C      -0.103743    1.562730   -0.076544
C       0.071100    0.051305   -0.016699
N       0.945164   -0.449305   -1.116510
C       1.581899   -1.402493   -0.586306
O       2.788904   -1.997809   -0.829593
C       2.959001   -2.146917    0.639830
C       1.471413   -1.744909    0.853015
C       0.786237   -0.431731    1.305218
O       0.795590    0.121716    2.363971
H       0.869542    2.060808   -0.091842
H      -0.647996    1.844530   -0.980648
H      -0.657676    1.911162    0.798905
H      -0.916609   -0.432931   -0.050942
H       3.221721   -3.172170    0.901117
H       3.706598   -1.436442    0.997494
H       0.833430   -2.592891    1.114851
