12

O      -0.068132    0.046631   -0.275872
C      -0.026154    1.184718    0.117067
C       1.225165    2.001066    0.068379
C       1.250067    3.480191   -0.138754
O       0.045830    4.087913    0.396480
C       0.434140    3.719710    1.688125
O      -0.082188    4.020123    2.709901
C       1.653747    2.967866    1.209005
H      -0.917072    1.691286    0.536675
H       2.070527    1.465132   -0.354982
H       1.789758    4.025525   -0.899480
H       2.607285    2.873694    1.706334
