19

O      -0.137672    0.300211    0.747894
C      -0.012513    1.295443    0.069128
N       1.164854    1.760389   -0.440121
C       2.431368    1.105827   -0.237031
C       3.421627    1.028117   -1.430430
N       4.553190    1.508753   -0.575490
C       4.810674    2.974436   -0.744813
C       3.761345    3.340688    0.340372
C       3.567969    1.820468    0.542148
H      -0.864408    1.943589   -0.218086
H       1.133723    2.602364   -0.993264
H       2.205172    0.131704    0.196300
H       3.586412    0.030804   -1.847493
H       3.175712    1.708748   -2.257147
H       5.839761    3.228695   -0.474343
H       4.622243    3.345475   -1.758543
H       4.153276    3.871971    1.209560
H       2.876426    3.879592   -0.010628
H       3.789570    1.429356    1.538414
