21

C      -0.355113    1.568990    0.117285
C      -0.457068    0.080775   -0.202774
O       0.852546   -0.476464   -0.434618
C      -1.222079   -0.707060    0.872341
C      -1.353965   -2.180196    0.534709
O      -0.151067   -2.895532    0.508945
C      -2.530550   -2.974366    1.037474
C      -2.423895   -2.616224   -0.433786
O      -3.257884   -1.626793   -0.971396
H       0.217166    2.087393   -0.656931
H      -1.348202    2.024338    0.179933
H       0.145319    1.728345    1.081077
H      -0.974842   -0.053102   -1.158032
H       1.387049   -0.291090    0.346969
H      -0.710231   -0.604733    1.839840
H      -2.216850   -0.265424    0.976636
H       0.450908   -2.369724   -0.040651
H      -2.345062   -4.003615    1.323675
H      -3.277448   -2.450811    1.625294
H      -2.145308   -3.417935   -1.116445
H      -4.151022   -1.983592   -1.022594
