23

C      -0.330397    1.504407    0.094935
C      -0.008845    0.021900   -0.001612
C       1.176509   -0.360645   -0.938156
C       1.902563   -1.067386    0.236307
C       0.735916   -0.703154    1.203150
C       1.119149    0.093130    2.439924
C      -0.189433   -1.890358    1.503545
O      -0.913158   -2.141364    0.306239
C      -1.248110   -0.859679   -0.208943
H       0.567181    2.099830    0.290860
H      -0.761605    1.868445   -0.845638
H      -1.052636    1.713866    0.891945
H       0.901979   -1.017299   -1.767978
H       1.710245    0.502359   -1.345475
H       2.056533   -2.141041    0.099467
H       2.859203   -0.616012    0.513183
H       1.738530    0.959394    2.185925
H       0.237779    0.457423    2.979556
H       1.698843   -0.526973    3.134595
H       0.343584   -2.807550    1.772350
H      -0.881520   -1.635446    2.325503
H      -2.110774   -0.438674    0.337084
H      -1.530458   -0.983089   -1.259016
