19

C      -0.016207    1.540255    0.000541
C      -0.018688   -0.003964    0.015245
C       0.754446   -0.521564    1.247776
C      -1.460875   -0.534045    0.030076
O      -2.090090   -0.054649    1.211490
C       0.661018   -0.518358   -1.255253
O       0.103339   -1.220906   -2.072580
C       2.049562   -0.120750   -1.455517
C       3.196334    0.196908   -1.638654
H       1.003382    1.933875    0.005795
H      -0.528870    1.928077   -0.886071
H      -0.541960    1.907547    0.884361
H       0.243175   -0.193019    2.155034
H       0.795770   -1.615871    1.257741
H       1.778677   -0.140363    1.260551
H      -1.986202   -0.190581   -0.871726
H      -1.447326   -1.632282    0.000311
H      -2.992453   -0.384936    1.222357
H       4.208954    0.470819   -1.811311
