18

C      -0.145821    1.549997    0.154269
C      -0.037192    0.046080    0.086160
C       1.205448   -0.634621   -0.343577
C       0.794115   -0.735507    1.137088
C       1.552968    0.016405    2.095716
N       2.158999    0.618588    2.877063
C       0.214076   -2.066468    1.566841
C       0.425632   -2.493577    2.999714
O      -0.396106   -2.737381    0.764617
H       0.800927    2.010979    0.447738
H      -0.426853    1.945845   -0.827167
H      -0.909471    1.860107    0.873887
H      -0.952334   -0.488971   -0.149566
H       1.120783   -1.568041   -0.887503
H       2.082823   -0.032600   -0.551937
H       0.017070   -1.744111    3.686305
H      -0.055651   -3.457215    3.165936
H       1.495987   -2.564159    3.221695
