16

O       0.106816    1.490999    0.037695
C       0.117879    0.067347   -0.064774
C      -1.376328   -0.357521   -0.119567
O      -1.797288   -1.396054    0.301672
C       0.726992   -0.368849   -1.319797
C       1.214719   -0.706579   -2.365946
C       0.806954   -0.575589    1.141662
C       2.074841   -0.011740    1.650793
N       0.823613    0.139408    2.417656
H       0.763460    1.846391   -0.569132
H      -2.013202    0.412916   -0.602787
H       1.653655   -1.015742   -3.283141
H       0.609759   -1.640377    1.213272
H       2.818024   -0.665057    2.097705
H       2.478973    0.865475    1.151971
H       0.467265    1.081428    2.264664
