20

O      -0.100527    0.900838   -0.920362
C      -0.132256   -0.204546   -0.048979
C       0.218092    0.071802    1.420422
C      -0.217514   -1.221009    2.128629
C      -1.484951   -1.694565    1.358171
C      -1.517368   -0.894848    0.042421
O      -2.524969    0.123326    0.152406
C      -3.086071    0.566888   -0.991117
N      -3.765070    1.631530   -0.985487
H      -0.678266    1.579514   -0.551263
H       0.581438   -0.928090   -0.463027
H       1.272154    0.320064    1.563176
H      -0.380816    0.921799    1.771375
H       0.574856   -1.973113    2.048935
H      -0.410870   -1.075983    3.193713
H      -1.465264   -2.770441    1.167863
H      -2.401677   -1.480532    1.912150
H      -1.732273   -1.510751   -0.837792
H      -2.902640   -0.089206   -1.852072
H      -4.153461    1.798408   -1.911476
