27

C       0.194858    1.612939   -0.255764
C       0.010330    0.125528   -0.042043
C       1.181506   -0.824118   -0.101226
C       0.464801   -0.594768    1.211886
C       1.122101    0.128911    2.372027
C       1.867282   -0.757021    3.406937
C       3.009812   -1.542578    2.738562
C       2.458587    0.172986    4.482750
C       0.895729   -1.742078    4.083845
H       1.156121    1.966543    0.127198
H       0.160597    1.856406   -1.323591
H      -0.592892    2.191025    0.240895
H      -0.915250   -0.256989   -0.466062
H       1.067858   -1.776902   -0.607717
H       2.168468   -0.383598   -0.210101
H      -0.199450   -1.399240    1.516623
H       1.834979    0.867092    1.985084
H       0.356436    0.703578    2.913053
H       3.726836   -0.867427    2.257915
H       3.557980   -2.133800    3.480804
H       2.633183   -2.228284    1.974581
H       1.672613    0.745577    4.987973
H       2.996994   -0.399650    5.245980
H       3.162875    0.888529    4.043703
H       0.487700   -2.466984    3.372876
H       1.406406   -2.308887    4.870176
H       0.054594   -1.214308    4.547731
