21

C      -0.134034    1.572326    0.073403
C       0.037935    0.062606    0.019726
C       0.871853   -0.644420   -1.108780
C       0.589606   -0.634567   -2.587220
C       2.174739   -0.163893   -0.388221
C       1.239576   -0.658335    0.743686
C       0.911440   -1.887410   -0.164756
C       1.500230   -0.684408    2.206616
O       2.491147   -0.244030    2.736555
H       0.796913    2.122688   -0.079881
H      -0.842897    1.897705   -0.696493
H      -0.543930    1.879803    1.041414
H      -0.925780   -0.427662    0.204624
H       0.614538    0.385303   -2.986686
H       1.334211   -1.224003   -3.133330
H      -0.397899   -1.056707   -2.804469
H       3.070180   -0.765996   -0.562138
H       2.413486    0.899026   -0.418894
H      -0.038482   -2.398017    0.018001
H       1.730350   -2.594996   -0.319148
H       0.685578   -1.150575    2.810532
