16

C       0.012062    1.475548    0.010028
C      -0.012860    0.020652    0.002423
C      -0.040096   -1.182056   -0.003796
C      -0.044307   -2.636444   -0.011638
O      -1.379271   -3.119245   -0.001426
C      -1.419191   -4.533633   -0.008669
C      -2.801494   -4.990919    0.002119
C      -3.931122   -5.397552    0.010773
H       1.041299    1.850920    0.003986
H      -0.496150    1.886932   -0.868768
H      -0.482273    1.877405    0.901061
H       0.488057   -3.011593   -0.903454
H       0.505061   -3.021180    0.865665
H      -0.903667   -4.931249   -0.900539
H      -0.886703   -4.940790    0.868814
H      -4.933497   -5.748109    0.018512
