19

C      -0.121585    1.569002   -0.075499
C       0.037756    0.049073   -0.080782
O      -1.263970   -0.572898   -0.149959
C       0.882215   -0.487925   -1.217150
C       1.854685   -1.296762   -0.787832
C       1.874321   -1.416299    0.696094
C       2.168222   -0.116623    1.452707
C       0.756454   -0.505743    1.174479
O      -0.057502   -0.786638    2.262471
H       0.847500    2.072439   -0.065275
H      -0.670152    1.901404   -0.963117
H      -0.671319    1.885049    0.819789
H      -1.913406    0.069374    0.154785
H       0.680286   -0.220282   -2.247669
H       2.578862   -1.789807   -1.427531
H       2.104757   -2.356868    1.182702
H       2.477213   -0.220892    2.488038
H       2.635510    0.700304    0.912151
H      -0.820325   -1.246207    1.884106
