13

O      -0.300781    0.351063   -0.561161
C       0.124353    1.150732    0.232262
C       1.382030    1.930832    0.018588
C       2.861247    1.452621    0.143617
C       2.818590    2.991194   -0.004704
C       1.799141    2.853294   -1.159814
O       1.689830    3.029408    0.960906
H      -0.383568    1.366963    1.197857
H       3.140072    1.087326    1.132089
H       3.272122    0.858441   -0.674766
H       3.613681    3.722421    0.134342
H       2.122702    2.377859   -2.087337
H       1.150428    3.715351   -1.315342
