21

C      -0.164896    1.472460    0.204381
C      -0.154225   -0.056300    0.099696
C      -1.520229   -0.640730   -0.106241
C      -2.601041   -0.317090   -1.179703
C      -3.227492   -1.217464   -0.090561
C      -4.653347   -1.567916    0.215678
O      -4.749517   -2.235256    1.459616
C      -1.972171   -2.122835   -0.120848
O      -2.553616   -0.378339    0.944388
H       0.838968    1.856392    0.406596
H      -0.519169    1.931129   -0.724362
H      -0.827020    1.796591    1.011788
H       0.484224   -0.381971   -0.731185
H       0.269299   -0.495353    1.011346
H      -2.956908    0.714007   -1.189759
H      -2.470226   -0.736131   -2.180766
H      -5.259847   -0.647855    0.196976
H      -5.047994   -2.245307   -0.549396
H      -4.219831   -1.721052    2.081201
H      -1.784784   -2.708737   -1.024545
H      -1.779062   -2.678042    0.797464
