17

C       0.022497    1.561081   -0.042455
C      -0.004073    0.024531    0.038799
C      -1.405820   -0.536655    0.021851
C      -2.077815   -0.852909    1.207144
N      -3.325696   -1.321361    1.266490
C      -3.979189   -1.504190    0.119575
C      -3.392716   -1.223432   -1.108303
F      -4.084339   -1.430989   -2.232221
C      -2.098896   -0.736092   -1.173143
H       1.051574    1.932752   -0.029044
H      -0.454354    1.915359   -0.961922
H      -0.512454    2.006623    0.801857
H       0.566683   -0.392961   -0.798658
H       0.502270   -0.299063    0.954784
H      -1.571689   -0.722215    2.161568
H      -4.994882   -1.887547    0.162791
H      -1.649162   -0.524397   -2.137782
