18

O      -0.466890    0.330667   -1.044830
C       0.226490    0.505144   -0.079502
C       1.110627    1.733319    0.134062
C       0.666983    2.475420    1.381980
C       0.652161    3.942067    1.448089
O      -0.556529    3.200125    1.283064
N       2.474911    1.251064    0.335659
C       3.254502    0.981776   -0.872430
C       3.553392    2.168901   -0.026550
H       0.293641   -0.242176    0.742270
H       0.992351    2.385692   -0.746062
H       0.796667    1.915779    2.308932
H       0.769872    4.439174    2.409608
H       0.963726    4.522727    0.580866
H       3.889329    0.101967   -0.832088
H       2.779920    1.160751   -1.835095
H       3.280840    3.144086   -0.424982
H       4.410594    2.171598    0.640023
