20

C      -0.131136    1.514834    0.176890
C      -0.007521    0.010490    0.095765
O      -1.213042   -0.647090   -0.207807
C       1.273932   -0.621649   -0.407012
C       0.872723   -0.750179    1.042590
C       1.565761   -0.202749    2.299423
C       0.864597   -1.326469    3.119545
C       0.443136   -2.019722    1.789681
H       0.818546    1.980502    0.453769
H      -0.432818    1.931520   -0.792278
H      -0.887066    1.801534    0.915691
H      -1.432207   -0.453502   -1.125890
H       1.179299   -1.508600   -1.026522
H       2.108575    0.026671   -0.659751
H       2.653829   -0.319203    2.264060
H       1.339596    0.828384    2.584998
H       1.500222   -1.904652    3.793575
H       0.007125   -0.955388    3.686288
H      -0.606355   -2.300658    1.685888
H       1.065236   -2.886855    1.546172
