19

C       0.031221    1.489764    0.087632
C      -0.038242   -0.017452   -0.103083
C       0.778401   -0.519512   -1.288016
C       0.779286   -2.039368   -1.310644
O       1.527316   -2.461950   -2.439293
C       1.386106   -2.541805    0.000022
C       0.878029   -1.856565    1.264001
O       0.969489   -2.358902    2.350594
O       0.382937   -0.600859    1.154819
H       1.066256    1.809665    0.240587
H      -0.365719    2.000936   -0.794435
H      -0.554845    1.790488    0.959325
H      -1.086917   -0.315845   -0.243714
H       0.349354   -0.126574   -2.214787
H       1.811716   -0.157571   -1.221649
H      -0.262841   -2.392048   -1.391337
H       1.535943   -3.424721   -2.453573
H       1.252517   -3.617655    0.142210
H       2.467572   -2.356399   -0.038879
