23

C      -0.284889    1.506318   -0.097497
C       0.175407    0.046667   -0.095918
C       0.437299   -0.497852    1.314944
C       0.919578   -1.934357    1.294331
O       2.215570   -2.091363    0.661846
C       2.636296   -3.032901    1.667560
C       1.427548   -2.660714    2.567943
C       1.780526   -1.789365    3.764822
O       0.555806   -3.712042    2.928400
H       0.467253    2.159368    0.359237
H      -0.462643    1.866464   -1.115639
H      -1.215929    1.630727    0.467211
H      -0.579956   -0.579207   -0.588827
H       1.092472   -0.056677   -0.686815
H       1.179728    0.133655    1.817435
H      -0.484363   -0.449341    1.911191
H       0.173942   -2.574956    0.798740
H       2.588954   -4.071336    1.313742
H       3.642725   -2.812000    2.042598
H       2.440285   -0.965895    3.479217
H       0.879403   -1.373410    4.225199
H       2.309174   -2.384375    4.520820
H       0.845818   -4.074295    3.772157
