21

C      -0.071118    1.560113   -0.062204
C       0.024845    0.038114   -0.010330
N       0.706265   -0.473720   -1.196274
C       0.544368   -1.917103   -1.329430
C       0.916536   -2.670919   -0.056385
O       1.151441   -3.865192   -0.070241
N       0.904713   -1.939434    1.096723
C       0.790331   -0.485694    1.221574
C       2.167796    0.158667    1.424980
H       0.909586    2.013334   -0.228787
H      -0.729584    1.869977   -0.880762
H      -0.488527    1.960177    0.866690
H      -1.002488   -0.368460    0.067624
H       0.364247   -0.006978   -2.029137
H      -0.491240   -2.223236   -1.569861
H       1.186176   -2.300394   -2.126407
H       1.201002   -2.462772    1.909287
H       0.168931   -0.282684    2.103810
H       2.759534    0.076128    0.509973
H       2.077745    1.214448    1.696701
H       2.705109   -0.346814    2.233483
