17

N       0.007275   -1.000842   -0.621853
C       0.016718    0.123409   -0.355331
C       0.025897    1.540307   -0.004220
C       1.437764    2.095570    0.163756
O       2.226905    2.031966   -1.051122
C       2.574380    3.428179   -0.965754
C       1.651682    4.351564   -1.785933
N       0.651973    4.333461   -0.673446
C       1.602584    3.631539    0.221567
H      -0.490758    2.124759   -0.770937
H      -0.525086    1.673788    0.935029
H       1.960521    1.578451    0.979194
H       3.652343    3.596920   -0.975124
H       2.098598    5.336752   -1.967645
H       1.282064    3.939156   -2.729343
H       0.384656    5.252701   -0.345415
H       1.830156    4.099451    1.179732
