20

O       0.064501    1.393003   -0.245814
C       0.033863    0.000465    0.022595
C      -1.422862   -0.438648    0.052895
C      -2.176190   -0.204237   -1.272919
C      -3.332493   -1.208033   -1.220748
C      -2.646766   -2.481867   -0.665536
C      -1.591291   -1.953614    0.359848
C      -3.574583   -3.455189   -0.099684
N      -4.313914   -4.218434    0.356151
H       0.982084    1.680014   -0.261619
H       0.569339   -0.569642   -0.756488
H       0.514365   -0.232196    0.986657
H      -1.922531    0.140686    0.837680
H      -2.505479    0.829403   -1.390988
H      -1.518770   -0.434890   -2.122006
H      -4.103655   -0.870097   -0.520014
H      -3.814872   -1.385125   -2.184939
H      -2.122269   -2.975745   -1.491592
H      -0.650513   -2.500867    0.246163
H      -1.931328   -2.116826    1.384460
