15

N      -0.003148    1.277053   -0.045784
C       0.070959   -0.079544    0.082010
O       1.108860   -0.682448    0.232203
C      -1.303553   -0.753814    0.050771
O      -1.103611   -2.155755   -0.019721
C      -2.211990   -2.909888    0.003339
N      -3.390682   -2.450202    0.072329
C      -1.850575   -4.379030   -0.063835
O      -2.693934   -5.236600   -0.058256
H       0.854406    1.803866   -0.031032
H      -0.863946    1.761320   -0.232655
H      -1.873355   -0.499882    0.952993
H      -1.897475   -0.414592   -0.806613
H      -4.041346   -3.239144    0.076445
H      -0.766029   -4.594239   -0.116942
