18

C      -0.070567    1.399272   -0.100170
N       0.015172   -0.041337    0.088608
C      -1.215196   -0.782357    0.126022
C      -1.532853   -1.780968   -0.986368
C      -1.121901   -2.248598    0.392989
O       0.114112   -2.813484    0.693707
C       1.233502   -2.185338    0.094794
C       1.235407   -0.656019    0.060782
O       2.294273   -0.059551   -0.040516
H       0.942343    1.798771   -0.094549
H      -0.553250    1.641152   -1.054841
H      -0.651379    1.855253    0.709322
H      -2.027480   -0.215399    0.569424
H      -2.564687   -1.928593   -1.286512
H      -0.813493   -1.841803   -1.795318
H      -1.883345   -2.706333    1.014342
H       2.111317   -2.494720    0.664116
H       1.375325   -2.533708   -0.940796
