16

C       0.041030    1.498202   -0.097161
N       1.199976    2.219885    0.361455
C       2.359033    1.797444    0.598301
O       3.001422    0.600109    0.491833
C       2.465556   -0.583454   -0.038987
C       1.401222   -1.406422    0.595670
O       0.407953   -0.596633    1.209451
C       0.054640   -0.017873   -0.082088
C       1.178731   -0.768793   -0.786797
H      -0.811384    1.841687    0.505024
H      -0.182416    1.816306   -1.126369
H       3.100099    2.501011    0.978696
H       3.281792   -1.173733   -0.446475
H       1.507323   -2.429943    0.937812
H      -0.931218   -0.398217   -0.379494
H       1.128840   -1.183260   -1.785301
