11

O       0.055388    0.036834    0.549973
C       0.034580    1.142998    0.091841
O      -1.171377    1.718308   -0.256012
N      -1.266507    2.991574   -0.789591
C      -0.151386    3.637938   -0.953490
N       1.132818    3.181915   -0.647612
C       1.205513    2.001450   -0.154332
C      -0.251817    4.948688   -1.503413
C      -0.312685    6.055924   -1.965748
H       2.175747    1.583306    0.107215
H      -0.370711    7.035105   -2.374983
