15

O       0.117072    1.333793   -0.066262
C      -0.021354   -0.044955    0.032545
C      -0.468123   -0.788768    1.297612
C      -1.172506    0.051577    2.305945
O      -0.923254    0.224231    3.460503
O      -2.222714    0.701676    1.685644
C      -2.528262    0.101560    0.415350
C      -1.328311   -0.761359    0.040864
O      -1.568304   -1.910884   -0.698366
H      -0.509671    1.765619    0.527050
H       0.787600   -0.543352   -0.492106
H       0.093386   -1.648321    1.636006
H      -3.420701   -0.525140    0.511733
H      -2.726307    0.906755   -0.299224
H      -1.454017   -1.704496   -1.632518
