21

C       0.094641    1.380478   -0.066878
O       0.256285   -0.016356   -0.104832
C       0.467031   -0.577780    1.176702
C       0.559904   -2.078710    1.028874
C      -0.700045   -2.739374    0.506169
C       1.891707   -2.659098    0.647502
C       1.375186   -2.847659    2.069006
C       2.014270   -2.199926    3.177135
C       2.546198   -1.674681    4.120558
H       0.984202    1.885060    0.343049
H      -0.061535    1.720742   -1.093591
H      -0.774827    1.676421    0.541961
H       1.384396   -0.174432    1.630846
H      -0.369269   -0.314977    1.848381
H      -0.966242   -2.321004   -0.468510
H      -0.567133   -3.819573    0.392742
H      -1.542887   -2.572963    1.187054
H       1.913474   -3.534167    0.007192
H       2.725152   -1.978989    0.515329
H       0.988137   -3.837142    2.297802
H       3.017533   -1.210038    4.950519
