13

N       0.066792   -1.107477   -0.006501
C       0.057957    0.046510    0.001484
C      -0.012264    1.505909    0.012267
O       1.324702    2.013842    0.000109
C       1.382833    3.343150    0.007435
N       0.413942    4.198876    0.024014
C       1.082360    5.427786    0.023580
C       2.414110    5.215758    0.006577
O       2.623326    3.848411   -0.004121
H      -0.563399    1.866680   -0.863135
H      -0.542717    1.854574    0.905183
H       0.544386    6.361734    0.035565
H       3.295111    5.831837   -0.000076
