19

O      -0.156921    1.453347   -0.011050
C      -0.072530    0.073966    0.028351
C      -0.296141   -0.789817   -1.178569
C      -1.224776   -0.917969    0.015219
C      -0.545202   -1.748231    1.103430
C      -1.309902   -2.110845    2.392050
O      -1.122387   -3.520973    2.164506
C      -0.346704   -3.272907    0.973696
C       0.625509   -0.716924    1.143058
H       0.572844    1.788009   -0.543812
H      -0.732967   -0.267216   -2.023746
H       0.387956   -1.593767   -1.444116
H      -2.291149   -0.746364   -0.073579
H      -0.837332   -1.776645    3.325841
H      -2.372058   -1.832899    2.411432
H      -0.793952   -3.736551    0.084995
H       0.688071   -3.625829    1.079730
H       1.634354   -1.091760    0.934954
H       0.635776   -0.163377    2.085969
