21

C       0.874203   -0.332054   -0.995832
O      -0.112017    0.068423   -0.072656
C      -1.371739   -0.554870   -0.115569
C      -1.873708   -1.309823   -1.319154
C      -1.518062   -2.052115   -0.039708
C      -2.363383    0.303709    0.663006
C      -1.883919    0.577503    2.100275
C      -2.592975    1.618576   -0.064502
O      -3.675213    2.036886   -0.389911
H       1.780065    0.219390   -0.733489
H       1.097221   -1.406852   -0.938073
H       0.599546   -0.083548   -2.029835
H      -2.918328   -1.195661   -1.588290
H      -1.215666   -1.452367   -2.167681
H      -0.617346   -2.656039   -0.057076
H      -2.314073   -2.461686    0.572669
H      -3.327459   -0.213460    0.687035
H      -2.634743    1.146317    2.656065
H      -1.708180   -0.366562    2.624624
H      -0.947073    1.139640    2.098703
H      -1.663864    2.191829   -0.276136
