23

C      -0.106597    1.568399    0.084547
C       0.032168    0.047905    0.031172
C      -1.331886   -0.609465   -0.188211
C       1.113728   -0.533537   -0.954528
C       1.784433   -1.259190    0.220893
C       2.317496   -2.654292    0.176669
O       3.551631   -2.644565   -0.535315
C       2.239170   -0.247590    1.235212
C       0.785648   -0.631118    1.197021
H       0.854777    2.061679    0.253834
H      -0.515348    1.954277   -0.856716
H      -0.784512    1.873161    0.890450
H      -1.781503   -0.277410   -1.130886
H      -1.244563   -1.700733   -0.221377
H      -2.025706   -0.354940    0.621849
H       0.681183   -1.209834   -1.696974
H       1.742049    0.196646   -1.474462
H       2.453282   -3.028014    1.205485
H       1.588992   -3.317577   -0.318401
H       3.831178   -3.556971   -0.657403
H       2.799074   -0.652830    2.072739
H       2.572772    0.737773    0.920243
H       0.298439   -1.087804    2.053076
