20

O      -0.159954    1.492249   -0.083574
C       0.017745    0.092845    0.082120
C      -1.362304   -0.543726    0.028858
C      -2.094902   -0.286244   -1.306272
O      -2.965090   -1.392670   -1.485501
C      -2.230686   -2.534723   -1.077554
C      -1.394650   -2.078234    0.118443
C      -0.317667   -2.915468    0.699472
N      -1.613411   -2.775642    1.393718
H       0.705416    1.911644   -0.081191
H       0.649929   -0.330130   -0.715315
H       0.507619   -0.130307    1.043500
H      -1.965089   -0.125990    0.844262
H      -2.693272    0.625530   -1.308036
H      -1.364857   -0.224855   -2.132126
H      -2.928817   -3.331370   -0.812106
H      -1.575579   -2.884956   -1.893908
H      -0.123729   -3.904955    0.291390
H       0.558963   -2.431663    1.121909
H      -1.517433   -2.121609    2.168296
