16

N       0.257822    1.286952   -0.134542
C      -0.041444   -0.064649   -0.035836
C      -1.174672   -0.762962    0.257600
C      -0.774145   -2.143361    0.298412
C       0.552361   -2.182943    0.027083
C       1.556498   -3.283510   -0.086278
C       2.108774   -3.453437   -1.432252
C       2.564207   -3.588673   -2.535660
O       1.015727   -0.899487   -0.176558
H       1.000302    1.472305   -0.797496
H      -0.554824    1.850319   -0.343049
H      -2.159413   -0.356722    0.422171
H      -1.405808   -2.995931    0.495913
H       2.382596   -3.117290    0.619680
H       1.067156   -4.211837    0.229868
H       2.963081   -3.707830   -3.512261
