17

O      -0.338352    1.271506    0.144701
C       0.013030   -0.074577   -0.034126
C       0.875138   -0.235677   -1.291541
O       1.207224    0.718562   -1.946515
C       0.755417   -0.655923    1.087775
C       1.390442   -1.142685    1.990602
C       2.134107   -1.711826    3.074111
C       1.622439   -1.573719    4.501331
C       1.584279   -2.912625    3.831252
H       0.169151    1.759262   -0.524120
H      -0.899704   -0.673999   -0.200965
H       1.181589   -1.269332   -1.540419
H       3.213240   -1.680894    2.956007
H       2.363231   -1.398646    5.272963
H       0.688283   -1.042820    4.638162
H       0.622938   -3.296431    3.511772
H       2.297134   -3.669493    4.138227
