20

O       0.189871    1.367057    0.202326
C       0.025652    0.001280   -0.157514
C      -1.407731   -0.461738    0.005368
C      -1.849882   -1.086403    1.282087
N      -1.572860   -1.920522    0.108570
C      -2.736317   -2.547897   -0.546068
C      -3.493452   -1.606741   -1.485101
O      -3.672296   -0.332530   -0.889674
C      -2.429545    0.336070   -0.794292
H      -0.019093    1.446954    1.139081
H       0.323026   -0.063072   -1.210602
H       0.687571   -0.664206    0.413901
H      -1.157634   -1.206931    2.113673
H      -2.891107   -0.945505    1.564377
H      -2.382268   -3.417748   -1.112718
H      -3.413516   -2.922084    0.229495
H      -2.949710   -1.495254   -2.437821
H      -4.488189   -2.002644   -1.709109
H      -2.618460    1.304257   -0.324380
H      -2.026581    0.528109   -1.803918
