16

O       0.169229    1.275192   -0.119851
C       0.035129   -0.122055   -0.115315
C      -1.400124   -0.531171   -0.010626
N      -2.380523    0.287080   -0.007966
C      -3.577725   -0.513204    0.031916
C      -3.765804   -1.461341   -1.144229
O      -3.015213   -1.331770   -2.303675
C      -3.081268   -1.963208    0.095759
O      -1.668514   -1.853247    0.104923
H      -0.729015    1.634298   -0.097082
H       0.454210   -0.563706   -1.032906
H       0.588232   -0.565633    0.726257
H      -4.432924   -0.107752    0.558929
H      -4.784464   -1.825770   -1.276014
H      -3.112027   -0.429010   -2.627114
H      -3.449918   -2.780844    0.700673
