17

C      -0.007204    1.552035    0.004512
C       0.016225    0.048042    0.051276
C       0.499352   -0.742030   -1.177291
O       0.407857   -2.120170   -0.696110
C      -0.152560   -1.955484    0.621510
C       0.741990   -0.810660    1.183316
O       2.122527   -0.987325    1.116505
C      -1.194434   -0.835436    0.417563
O      -2.358657   -0.665066    0.618651
H       1.006888    1.953638   -0.094181
H      -0.598441    1.913065   -0.843641
H      -0.449997    1.963701    0.916157
H      -0.140394   -0.610834   -2.056478
H       1.536975   -0.516177   -1.446322
H      -0.321840   -2.917967    1.096211
H       0.468682   -0.477897    2.187220
H       2.282500   -1.653603    0.434416
