19

C       0.006151    1.511491    0.193738
C      -0.041009    0.003273    0.074003
O       0.950438   -0.428963   -0.923675
C       1.296697   -1.779221   -0.634489
C       2.146545   -2.329037    0.571882
C       2.687948   -1.496288    1.735026
C       1.560087   -0.497295    1.930994
C       0.479960   -0.844315    1.215941
C       0.645091   -2.234144    0.610200
H       0.997589    1.852326    0.500345
H      -0.227421    1.969943   -0.771061
H      -0.732124    1.855879    0.924398
H      -1.032355   -0.319943   -0.271826
H       1.357043   -2.380293   -1.536343
H       2.628563   -3.276732    0.343685
H       2.919358   -2.132748    2.601858
H       3.609376   -0.948468    1.496566
H       1.751810    0.502057    2.306937
H      -0.082779   -3.028390    0.736119
