18

C       0.018566    1.441555    0.007946
C      -0.040347   -0.056757   -0.009140
O       0.891960   -0.628072   -0.933985
C       0.421456   -1.862573   -1.317643
N       0.903037   -2.571895   -2.243207
C      -0.700934   -2.219968   -0.380420
C      -0.077467   -2.320143    1.060811
C      -0.373814   -0.835964    1.251966
C      -1.301893   -0.844319    0.023723
H       1.003346    1.788574    0.335782
H      -0.173332    1.846378   -0.990191
H      -0.731428    1.842521    0.695385
H       1.690962   -2.095233   -2.686263
H      -1.330694   -3.035751   -0.720586
H      -0.711492   -2.934072    1.703994
H       0.959680   -2.661144    1.136358
H      -0.500321   -0.323607    2.199267
H      -2.305393   -0.471880   -0.135400
