22

C       0.528819    1.891637   -0.156117
C       0.569173    0.877971   -1.301758
C       0.367998   -0.562602   -0.820505
N       0.499079   -1.496685   -1.934596
C      -0.393678   -2.349012   -2.131367
C      -0.627461   -3.436601   -3.155975
C      -1.937385   -3.675788   -2.369965
C      -2.126169   -5.000941   -1.666612
O      -1.567231   -2.605022   -1.434654
H      -0.431677    1.860847    0.370600
H       1.314732    1.690090    0.580682
H       0.672899    2.912229   -0.523677
H      -0.206117    1.115574   -2.040474
H       1.526960    0.937575   -1.831153
H       1.150090   -0.803927   -0.087320
H      -0.597146   -0.654921   -0.303129
H      -0.732681   -3.088199   -4.184674
H       0.092450   -4.257389   -3.121927
H      -2.841093   -3.379941   -2.912407
H      -1.218892   -5.286627   -1.125581
H      -2.951477   -4.943598   -0.950767
H      -2.359070   -5.784757   -2.395215
