17

C       0.145637    1.401579   -0.096134
C      -0.107259   -0.039683    0.329276
N      -1.356386   -0.540048   -0.267522
C      -1.672802   -1.871230   -0.074291
C      -2.713340   -2.569940    0.436494
N      -2.508347   -3.943263    0.221266
C      -1.366100   -3.979172   -0.369916
O      -0.661063   -5.037976   -0.772048
O      -0.778533   -2.791646   -0.607234
H       1.085809    1.766306    0.327103
H       0.197538    1.479823   -1.185561
H      -0.653887    2.064824    0.254310
H       0.701509   -0.685025   -0.025049
H      -0.123667   -0.117900    1.428471
H      -2.147170    0.049233   -0.039503
H      -3.594852   -2.199148    0.933447
H      -1.174565   -5.816773   -0.522563
