15

N      -0.031367    1.293753    0.021962
C      -0.030036    0.025466   -0.056378
N      -1.206559   -0.700760   -0.038791
C      -2.496748   -0.178965    0.049726
N      -3.453309   -1.015878    0.084130
C      -2.870870   -2.357729    0.003633
C      -1.304979   -2.163016   -0.036584
C      -0.667393   -2.773792   -1.207286
N      -0.160073   -3.267481   -2.120635
H       0.918449    1.654938   -0.018265
H       0.852202   -0.616424   -0.151495
H      -2.601383    0.897742    0.082475
H      -3.166519   -2.954652    0.870321
H      -3.230945   -2.870748   -0.892370
H      -0.832438   -2.583180    0.858805
