17

C      -0.032564    1.468733    0.092371
C       1.291315    0.756045    0.017643
C       2.055263    0.445916    1.323518
C       1.095578   -0.457592    2.057038
C      -0.003189   -0.745023    1.277728
N      -0.801003   -1.560052    1.999167
N      -0.275543   -1.835946    3.220903
C       0.873137   -1.154817    3.260162
C      -0.017510   -0.045987   -0.022977
H      -0.349853    1.897310    1.037561
H      -0.339008    2.029967   -0.784643
H       1.868451    0.880860   -0.891129
H       3.008787   -0.049825    1.102744
H       2.298688    1.363264    1.872613
H      -1.684522   -1.970684    1.750999
H       1.485417   -1.214413    4.148444
H      -0.377674   -0.523297   -0.926911
