21

C      -0.055144    1.593728   -0.064269
C       1.480149    1.382776   -0.026087
C       1.179068    0.180469    0.942266
C      -0.065047    0.039462    0.026846
C      -1.346719   -0.765971    0.008843
C      -1.641969   -0.811929   -1.531845
O      -0.483026   -0.315996   -2.228987
C       0.587293   -0.357015   -1.302048
C       1.704820    0.708170   -1.405303
H      -0.447259    2.055230    0.845842
H      -0.490385    2.059980   -0.951666
H       2.164054    2.181258    0.263483
H       1.887300   -0.653919    0.975864
H       0.950166    0.520501    1.954959
H      -1.191389   -1.776946    0.399660
H      -2.166518   -0.311762    0.570957
H      -1.862550   -1.836964   -1.857881
H      -2.489479   -0.178680   -1.812380
H       1.004699   -1.376494   -1.257248
H       1.538223    1.400773   -2.234716
H       2.696486    0.262249   -1.519695
