19

C       0.231324    1.434948    0.211228
C      -0.279546    0.013654   -0.023271
O      -1.699335   -0.046823   -0.101286
C       0.330693   -0.576811   -1.281602
O       1.709823   -0.935486   -1.251020
C       0.739003   -1.991732   -1.449104
C       0.637357   -3.024124   -0.345686
C       0.712006   -2.540181   -2.788193
C       0.678754   -3.024774   -3.887681
H       1.319744    1.438289    0.320264
H      -0.023221    2.084410   -0.636065
H      -0.219095    1.854631    1.114540
H      -0.014771   -0.606280    0.837155
H      -1.988012    0.590908   -0.763770
H       0.031558   -0.052660   -2.194723
H       0.733548   -2.563112    0.637865
H      -0.322358   -3.545720   -0.403055
H       1.434984   -3.763906   -0.458098
H       0.652936   -3.444342   -4.863034
