14

N      -0.028062    1.316988    0.006454
C       0.002418    0.048326    0.002268
N      -1.174560   -0.690755    0.008858
C      -2.463701   -0.161861    0.020214
C      -3.426871   -1.111916    0.024691
C      -2.766424   -2.413876    0.015625
O      -3.196982   -3.545471    0.015667
C      -1.260546   -2.091513    0.005380
N      -0.273653   -2.879816   -0.004392
H       0.916370    1.695787    0.000625
H       0.879672   -0.601437   -0.006232
H      -2.551919    0.914990    0.024148
H      -4.491815   -0.944184    0.033328
H      -0.633602   -3.839453   -0.004585
