22

C       0.011054    1.621141   -0.048673
C      -0.009787    0.092261    0.018797
C       0.672954   -0.561079   -1.182800
C       0.669000   -2.085325   -1.147509
O       0.159645   -2.702673   -0.238994
C       1.342567   -2.788329   -2.320829
C       1.305935   -4.314303   -2.237864
C       1.990764   -4.987663   -3.429525
H       1.036777    2.006262   -0.077983
H      -0.503506    1.989023   -0.943759
H      -0.483490    2.061800    0.822386
H       0.478639   -0.252574    0.936432
H      -1.041515   -0.269684    0.081843
H       0.198788   -0.243221   -2.122957
H       1.717104   -0.226654   -1.269727
H       0.865812   -2.434825   -3.246791
H       2.378630   -2.424520   -2.383753
H       1.777881   -4.631026   -1.301700
H       0.263275   -4.641776   -2.166186
H       1.511381   -4.710429   -4.375368
H       3.045989   -4.699744   -3.499467
H       1.949783   -6.077882   -3.344428
