22

C      -0.694794    1.489443    0.656153
C      -0.268051    0.076676    0.227541
C       0.453757    0.122357   -1.127084
C       0.604958   -0.563461    1.307178
C       0.006265   -0.796911    2.710308
O       0.440980   -2.169054    2.723112
C       0.883036   -2.099618    1.343555
C       0.082496   -3.046298    0.465111
H       0.178943    2.139078    0.786888
H      -1.339625    1.949836   -0.099460
H      -1.246349    1.477841    1.601796
H      -1.179236   -0.526080    0.113067
H       1.359463    0.737409   -1.062866
H       0.752235   -0.873375   -1.467570
H      -0.188582    0.559562   -1.898544
H       1.546620   -0.006735    1.370029
H       0.437368   -0.218201    3.535589
H      -1.089602   -0.716412    2.760804
H       1.949591   -2.352229    1.273657
H      -0.985048   -2.809111    0.478156
H       0.434321   -3.027170   -0.571374
H       0.202646   -4.066768    0.842646
