19

C      -0.017756    1.405176    0.186062
C       0.170955   -0.092359   -0.042715
C       0.723047   -0.410852   -1.416622
O       1.013090    0.394350   -2.265376
O       0.856896   -1.745642   -1.581175
C       1.388166   -2.164271   -2.849236
C       1.374957   -3.664108   -2.873180
C       2.345882   -4.411196   -3.681118
O       2.481415   -4.329162   -2.263433
H       0.929872    1.939165    0.080699
H      -0.713448    1.828525   -0.542846
H      -0.411149    1.591736    1.189035
H       0.852578   -0.529919    0.696365
H      -0.771496   -0.640520    0.073082
H       0.772612   -1.750478   -3.655420
H       2.407308   -1.784145   -2.967765
H       0.407186   -4.121940   -2.666790
H       2.075007   -5.389108   -4.075601
H       3.098833   -3.872273   -4.255257
