19

C      -0.121935    1.502772    0.111968
C       0.058845   -0.002033    0.041494
O       1.153917   -0.517671    0.018435
C      -1.214234   -0.834311    0.001075
C      -0.941491   -2.328519   -0.068880
O      -2.189142   -2.996346   -0.101514
C      -2.072002   -4.393144   -0.167005
C      -3.469963   -4.985928   -0.196305
O      -3.693922   -6.165353   -0.251647
H       0.852436    1.991763    0.135927
H      -0.693249    1.859437   -0.752431
H      -0.695039    1.776915    1.004826
H      -1.822156   -0.602324    0.885236
H      -1.820396   -0.520348   -0.858647
H      -0.347987   -2.568277   -0.963566
H      -0.349746   -2.651184    0.800554
H      -1.527967   -4.722790   -1.068692
H      -1.529767   -4.805932    0.700897
H      -4.277081   -4.220959   -0.161529
