19

C      -0.754431    1.095827   -0.967304
C      -0.029066   -0.031662   -0.259234
O       0.491407   -0.919594   -1.266307
C       1.174326   -1.993164   -0.823205
N       1.368781   -2.241835    0.400496
C       1.692054   -2.883190   -1.951412
O       2.326847   -3.888960   -1.683604
N       1.387707   -2.458852   -3.199197
C       1.794564   -3.174322   -4.391610
H      -0.074964    1.650244   -1.621235
H      -1.581233    0.712070   -1.572124
H      -1.164054    1.792104   -0.229754
H       0.803904    0.330138    0.351989
H      -0.691280   -0.601331    0.400523
H       1.909871   -3.107813    0.454935
H       0.855039   -1.607312   -3.273928
H       2.435586   -2.553019   -5.026537
H       2.353365   -4.054857   -4.072936
H       0.925674   -3.493487   -4.977468
