22

C      -0.606971    1.423998   -0.044820
C       0.075948    0.063369   -0.027516
C       1.396890   -0.038575   -0.849292
N       2.115033   -0.295782    0.400491
C       0.911456   -0.333932    1.243940
C       0.934750    0.574389    2.464505
C       3.340560   -0.819121    0.676426
C       4.305301   -0.859539   -0.498810
O       3.630792   -1.216339    1.793767
H       0.095695    2.234853    0.171498
H      -1.043264    1.619082   -1.030380
H      -1.415360    1.475108    0.691555
H      -0.643563   -0.712657   -0.298674
H       1.434677   -0.866977   -1.567470
H       1.698396    0.882571   -1.363584
H       0.697155   -1.359727    1.570971
H       1.161766    1.610076    2.196760
H      -0.032373    0.551271    2.977921
H       1.704171    0.222572    3.155382
H       4.353095    0.104276   -1.015187
H       5.294077   -1.127905   -0.127687
H       3.986233   -1.609327   -1.231689
