19

N      -0.116124    1.231370   -0.688689
C      -0.044188    0.096032   -0.112693
C      -1.318140   -0.693465    0.084851
C      -1.664975   -1.142514    1.510178
C      -0.729906   -2.213628    2.073308
C       0.692583   -1.719298    2.362872
C       1.609509   -1.394199    1.194238
O       2.751950   -1.804264    1.153694
N       1.186779   -0.510582    0.205973
H       0.808768    1.654604   -0.799900
H      -2.113175   -0.058840   -0.309656
H      -1.255782   -1.583213   -0.557349
H      -1.681036   -0.273036    2.179975
H      -2.687129   -1.536133    1.492237
H      -1.144151   -2.587945    3.015885
H      -0.694951   -3.073133    1.391539
H       0.635056   -0.810917    2.979828
H       1.243053   -2.462759    2.942438
H       1.974164   -0.199322   -0.349799
