14

C       0.064440    1.509726    0.044034
C      -0.023103   -0.010126   -0.078532
N       0.713140   -0.512384   -1.230580
N       0.120410   -1.054732   -2.276095
N       1.078010   -1.366991   -3.123135
C       2.225747   -0.982784   -2.524248
O       3.434107   -1.132069   -3.068129
N       2.044056   -0.438059   -1.329181
H       1.104295    1.827676    0.147725
H      -0.365014    1.996152   -0.835969
H      -0.490443    1.838126    0.927278
H       0.383987   -0.499000    0.811045
H      -1.050900   -0.347341   -0.223574
H       3.307507   -1.551446   -3.928660
