16

C      -0.039190    1.511724    0.070389
C       0.004172   -0.005677    0.000757
C       1.331773   -0.703235   -0.262685
C       0.767462   -0.778520    1.122909
O       1.448452   -0.000009    2.060892
C       0.212569   -2.006125    1.624551
C      -0.263868   -3.006650    2.089882
C      -1.179841   -0.623674   -0.536154
N      -2.143190   -1.095245   -0.970394
H       0.837082    1.885120    0.602019
H      -0.053791    1.940404   -0.935853
H      -0.936065    1.851302    0.596436
H       1.330285   -1.604107   -0.862803
H       2.193532   -0.056138   -0.383900
H       0.885459    0.087612    2.839227
H      -0.687097   -3.898541    2.482409
