21

C      -0.017878    1.586936    0.030964
C       0.007505    0.052082    0.015713
C       0.663863   -0.436151    1.324390
O       0.383984   -1.801935    1.631911
C      -1.435568   -0.503584   -0.071583
O      -2.161557   -0.354459    1.133380
C       0.777843   -0.480126   -1.225461
C       2.151435   -0.005843   -1.339968
C       3.286407    0.384218   -1.416362
H       0.976039    2.003146    0.220657
H      -0.365975    1.983014   -0.929148
H      -0.700874    1.936551    0.810351
H       1.744861   -0.248266    1.293502
H       0.251061    0.134201    2.160366
H       0.897070   -2.362756    1.042611
H      -1.989640    0.046228   -0.841253
H      -1.406182   -1.558668   -0.378889
H      -1.815299   -1.023656    1.735487
H       0.777332   -1.579410   -1.208362
H       0.222512   -0.202670   -2.131494
H       4.287595    0.728857   -1.496892
