18

N      -0.334751    1.222912    0.414588
C      -0.182540   -0.001837    0.156248
O      -1.251384   -0.824037    0.140306
C      -0.984302   -2.199638   -0.121457
C      -2.323696   -2.921040   -0.179571
C      -2.156117   -4.414161   -0.440766
O      -3.435577   -5.035214   -0.596554
C      -3.879847   -5.833390    0.394258
O      -4.944014   -6.370918    0.362812
H       0.563004    1.701139    0.379715
H       0.765629   -0.508817   -0.073193
H      -0.444265   -2.305994   -1.073240
H      -0.349259   -2.616641    0.673656
H      -2.856206   -2.767035    0.764991
H      -2.938286   -2.481144   -0.970938
H      -1.609960   -4.595085   -1.372195
H      -1.600476   -4.899335    0.373359
H      -3.149279   -5.934722    1.221835
