17

C       0.108152    1.567347   -0.050865
C       0.083325    0.040605   -0.011429
N       0.695067   -0.523603   -1.212692
C       0.785277   -1.972034   -1.120816
C       1.778700   -2.279486   -0.017586
O       1.432785   -1.645663    1.225888
C       0.751485   -0.478224    1.269620
O       0.618724    0.080370    2.324913
H       1.133763    1.927285   -0.167556
H      -0.483446    1.932872   -0.896581
H      -0.306729    1.971953    0.872701
H      -0.970294   -0.288950    0.101048
H       0.161911   -0.240082   -2.027498
H      -0.182622   -2.460621   -0.900823
H       1.161269   -2.382744   -2.063151
H       1.825637   -3.349529    0.200712
H       2.775565   -1.930410   -0.308473
