20

C       0.413275    1.661723    0.035343
C       0.078861    0.166041    0.003872
C       0.687087   -0.564375   -1.207346
O       0.511554    0.194367   -2.391087
C       2.166942   -0.810843   -0.816976
C       2.183035   -0.848890    0.733531
C       0.712056   -0.619880    1.166571
O       0.563217    0.083504    2.387606
H       1.492827    1.842973    0.029195
H      -0.010539    2.159069   -0.839468
H       0.006704    2.117787    0.940311
H      -1.010007    0.051469    0.012605
H       0.178272   -1.536964   -1.311549
H       0.892038   -0.301680   -3.122221
H       2.560322   -1.726112   -1.269742
H       2.766901    0.021330   -1.197029
H       2.583192   -1.786031    1.132393
H       2.793024   -0.037478    1.141452
H       0.204197   -1.595975    1.236842
H       0.958342   -0.446133    3.086712
