19

C      -0.051599    1.405871   -0.385839
C      -0.145191   -0.120733   -0.343806
C      -1.405538   -0.608818    0.368777
O      -2.623948   -0.161266   -0.269741
C      -2.963666   -1.053141   -1.319211
C      -2.235914   -2.348255   -0.994513
O      -2.094431   -3.331667   -1.675769
C      -1.568980   -2.141178    0.361093
O      -0.402831   -2.898940    0.499322
H       0.840170    1.731346   -0.929012
H      -0.929375    1.835747   -0.876367
H       0.001757    1.825028    0.625181
H      -0.118420   -0.528878   -1.363283
H       0.717812   -0.553464    0.172700
H      -1.443662   -0.196641    1.381031
H      -4.050680   -1.189806   -1.346863
H      -2.643428   -0.690822   -2.307203
H      -2.315523   -2.404676    1.131668
H      -0.457860   -3.598836   -0.169107
