21

C      -0.735876    1.473960   -0.487472
C      -0.266738    0.020609   -0.505738
O       0.696508   -0.199399   -1.548311
C       2.084158   -0.298585   -1.190830
C       2.832742    0.989435   -1.527420
C       2.216256   -0.688391    0.278370
C       1.134822   -1.715874    0.662325
C       0.306060   -0.429030    0.835033
O       1.531122    0.327147    1.070339
H       0.058425    2.129557   -0.122367
H      -1.018300    1.786495   -1.495822
H      -1.607856    1.588101    0.166406
H      -1.116838   -0.631156   -0.754598
H       2.483127   -1.119941   -1.803688
H       2.541580    1.792384   -0.845863
H       3.914853    0.838214   -1.443156
H       2.606392    1.294420   -2.552097
H       3.254489   -0.835909    0.587812
H       0.817148   -2.439402   -0.090672
H       1.346032   -2.203746    1.614410
H      -0.410501   -0.338287    1.655855
