20

C      -0.171467    1.645615   -0.015708
C      -0.024418    0.139777   -0.005579
O      -1.270069   -0.428999   -0.328468
C       1.204987   -0.516984   -0.656523
C       2.149322   -0.236988    0.547129
C       2.487984   -1.723484    0.593710
N       1.012585   -1.789601    0.219330
C       0.739488   -0.550944    1.150078
C       0.323529   -0.723662    2.579467
H       0.769719    2.143247    0.231947
H      -0.495845    1.984427   -1.004164
H      -0.931697    1.954397    0.708261
H      -1.134662   -1.386631   -0.333749
H       1.479389   -0.621168   -1.708630
H       2.779769    0.639856    0.724163
H       3.148360   -2.125840   -0.181464
H       2.719776   -2.180156    1.561295
H       1.002442   -1.389366    3.122254
H       0.311806    0.242471    3.095268
H      -0.684896   -1.146596    2.627879
