17

C      -0.058192    1.464828    0.037081
C      -0.014570    0.011267    0.000952
C       0.010953   -1.193859   -0.031910
C       0.085513   -2.616169   -0.051692
C      -0.413656   -3.453348   -1.171212
N      -1.135782   -3.556873    0.102194
C      -0.277192   -4.439315    0.969531
C       0.928666   -3.470599    0.903905
H       0.681786    1.865531    0.738742
H       0.148243    1.898540   -0.947784
H      -1.043444    1.821772    0.357524
H      -0.984519   -2.947749   -1.943277
H       0.180636   -4.298606   -1.517933
H      -0.718920   -4.525764    1.963519
H      -0.134408   -5.442663    0.553901
H       1.876130   -3.842955    0.503809
H       1.116889   -2.968939    1.853806
