19

O      -0.220146    0.047553    0.144018
C      -0.057262    1.228500   -0.030261
C       1.282589    1.930868    0.019194
C       1.395081    2.964887   -1.122140
O       0.809378    4.149763   -0.610849
C       1.258467    4.271531    0.730239
C       1.365167    2.837869    1.265904
C       0.759177    2.437741    2.590984
C       2.256653    2.510995    2.432795
H      -0.916147    1.909680   -0.229339
H       2.072645    1.176640   -0.004225
H       2.452811    3.121231   -1.386685
H       0.849233    2.686342   -2.028427
H       2.241229    4.770062    0.762814
H       0.537218    4.891176    1.270681
H       0.264862    3.208482    3.173585
H       0.305522    1.455423    2.671726
H       2.815008    1.581060    2.409208
H       2.782262    3.334497    2.907277
