21

C      -0.078068    1.594462   -0.110317
C      -0.020981    0.066257   -0.171032
C      -1.370304   -0.591049    0.178512
C      -1.345952   -2.089447    0.141655
C      -1.608900   -2.922826    1.157323
C      -1.595259   -4.341550    0.701008
O      -2.594129   -4.625065   -0.312130
C      -1.264873   -4.318774   -0.733845
C      -1.049678   -2.865771   -1.137893
H       0.890571    2.039313   -0.358204
H      -0.817531    1.991497   -0.814752
H      -0.357724    1.940913    0.890814
H       0.291660   -0.248131   -1.174254
H       0.745548   -0.306001    0.519820
H      -1.688149   -0.258412    1.173916
H      -2.130000   -0.222420   -0.526937
H      -1.854591   -2.620249    2.168434
H      -1.370590   -5.170850    1.364663
H      -0.738377   -5.121746   -1.243013
H      -1.713981   -2.567814   -1.958702
H      -0.021659   -2.703368   -1.486154
