12

N       0.097619   -3.690602   -0.013732
C       0.055573   -2.529904   -0.009234
C       0.013364   -1.165697    0.002207
C      -0.018833    0.041861    0.022265
C      -0.032221    1.476823    0.035506
C       0.533084    2.178907    1.251290
N       1.261423    2.213426   -0.003381
C      -1.114276    2.098972   -0.702064
N      -1.992620    2.591169   -1.267792
H       0.075935    3.118287    1.545126
H       0.874271    1.540040    2.060251
H       2.024699    1.539918   -0.008050
