20

C       0.332572    1.398634    0.665896
C       0.180844    0.013799    0.241082
C       0.057425   -1.124060   -0.134115
C      -0.076335   -2.524469   -0.534030
C      -1.443610   -3.129382   -0.194258
C      -2.550083   -2.866239   -1.195295
O      -2.729960   -1.489155   -1.466074
C      -1.498114   -4.366946    0.624391
N      -1.890557   -3.071692    1.210388
H       1.363475    1.612048    0.969687
H       0.074426    2.092764   -0.141458
H      -0.315984    1.627634    1.518798
H       0.101015   -2.623260   -1.612263
H       0.709481   -3.110723   -0.040435
H      -2.303698   -3.332337   -2.156889
H      -3.474147   -3.331979   -0.821080
H      -2.820607   -1.043692   -0.616127
H      -2.312545   -5.075201    0.494245
H      -0.556701   -4.816444    0.929753
H      -1.139953   -2.705891    1.792401
