25

C      -0.183977    1.348079    0.423583
C       0.028330   -0.142902    0.141191
C       0.655330   -0.471318   -1.228641
C       2.156336   -0.182726   -1.307234
O       2.388036    1.210057   -1.273628
C       3.754526    1.536134   -1.344242
C       0.417257   -1.940509   -1.593120
O      -0.971030   -2.168549   -1.702490
C      -1.287925   -3.510771   -1.976876
H       0.758748    1.897240    0.411151
H      -0.837921    1.797454   -0.332244
H      -0.660244    1.490799    1.399345
H       0.656771   -0.584500    0.928130
H      -0.935668   -0.658707    0.192100
H       0.163304    0.134683   -2.000928
H       2.682092   -0.676000   -0.469529
H       2.574659   -0.603922   -2.238923
H       3.833780    2.625741   -1.323227
H       4.320172    1.121591   -0.494380
H       4.215016    1.163858   -2.273612
H       0.915122   -2.185745   -2.547192
H       0.852121   -2.603066   -0.822449
H      -2.376413   -3.584426   -2.039971
H      -0.853618   -3.847707   -2.931931
H      -0.930979   -4.186744   -1.183271
