19

C       0.040067    1.047530    0.979759
C       0.027080   -0.345848    0.349094
C       0.503944   -0.332864   -1.113451
O       1.839780    0.131855   -1.125110
C       2.349789    0.406113   -2.415522
C       0.371369   -1.659625   -1.729545
C       0.280872   -2.754033   -2.235129
C       0.129561   -4.057354   -2.828021
O       1.002931   -4.646338   -3.422677
H       1.043661    1.476872    0.947821
H      -0.637423    1.727911    0.451703
H      -0.282581    0.999655    2.023695
H       0.678731   -1.026510    0.907048
H      -0.980704   -0.773256    0.372914
H      -0.135986    0.362334   -1.688092
H       2.379872   -0.495463   -3.041606
H       1.750438    1.173110   -2.929683
H       3.366202    0.781106   -2.279734
H      -0.880116   -4.497529   -2.696956
