8

O      -0.015363    1.282053    0.009156
C       1.254697    1.708754   -0.000692
C       2.110850    0.655464   -0.014691
C       1.235184   -0.464281   -0.012316
N      -0.025935   -0.109384    0.001630
H       1.390540    2.779037    0.003842
H       3.187345    0.669697   -0.024970
H       1.481654   -1.516574   -0.020407
