20

C       0.076172    1.601180    0.143112
C      -0.008118    0.091171    0.105610
C       1.201347   -0.741241   -0.296555
C       0.709206   -0.754380    1.116376
O       1.522244   -0.057603    2.076574
C       1.450947   -0.808309    3.200731
N       0.757788   -1.867676    3.214887
C       0.154695   -1.981819    1.868166
C      -1.368693   -2.062076    1.966959
H       1.047951    1.931579    0.517866
H      -0.068064    2.023222   -0.856965
H      -0.692377    2.022916    0.799673
H      -0.970272   -0.299552   -0.216001
H       1.053983   -1.633192   -0.898347
H       2.127454   -0.209087   -0.489287
H       2.024366   -0.417088    4.034007
H       0.526063   -2.906672    1.408196
H      -1.780051   -1.144320    2.397829
H      -1.822247   -2.217552    0.982908
H      -1.650733   -2.899597    2.610078
