22

C       0.144877    1.482102   -0.114850
C       0.102666   -0.040902    0.048899
C      -1.313252   -0.596542    0.074745
C      -2.150761   -0.591506   -1.233292
N      -2.637646   -1.943099   -0.891225
C      -2.838092   -2.908826   -1.943726
C      -3.560282   -4.144133   -1.428921
O      -3.380762   -5.261172   -1.837587
C      -1.520632   -2.132256    0.060000
H       1.174534    1.851710   -0.131257
H      -0.334803    1.794413   -1.049007
H      -0.376716    1.983391    0.707901
H       0.662802   -0.515468   -0.767527
H       0.616389   -0.325288    0.976685
H      -1.883952   -0.141901    0.890782
H      -2.937244    0.161077   -1.353732
H      -1.504000   -0.575470   -2.127131
H      -3.499368   -2.460825   -2.701369
H      -1.914627   -3.224827   -2.461972
H      -4.300571   -3.918046   -0.628176
H      -0.659314   -2.656901   -0.387861
H      -1.788784   -2.632371    0.996544
