21

O      -0.053797    1.445519   -0.031798
C       0.037840    0.040849    0.032648
C       0.287785   -0.641110    1.406179
C      -0.812916   -1.673364    1.034750
C      -0.426676   -3.108493    0.533679
C      -1.412553   -3.705877    1.543906
C      -1.049154   -3.270473    2.934490
C      -1.775582   -2.303712    2.038091
C      -1.323859   -0.675858   -0.037636
H       0.833783    1.809944    0.044956
H       0.729368   -0.346854   -0.729542
H       1.291942   -1.014019    1.626583
H      -0.042415    0.017599    2.215832
H      -0.719903   -3.270863   -0.506922
H       0.620719   -3.409514    0.653713
H      -2.063310   -4.552203    1.361319
H      -1.648493   -3.700745    3.730717
H      -0.009278   -3.098172    3.204507
H      -2.745211   -1.896376    2.302876
H      -2.099268   -0.018899    0.370085
H      -1.657072   -1.070834   -1.000824
