21

C      -1.397678    0.546521    0.491533
C       0.037045    0.266208    0.030615
C       0.855797   -0.488405    1.075216
C       0.636206   -1.976217    1.415205
C       1.158393   -2.922657    0.381280
C       1.164796   -2.762006   -1.127139
C       2.162944   -2.258733    1.316658
C       2.362231   -0.826100    0.900886
O       3.325286   -0.151884    0.663898
H      -1.409718    1.143781    1.410153
H      -1.957547    1.096315   -0.271186
H      -1.938771   -0.384131    0.694688
H       0.012529   -0.286966   -0.912564
H       0.551297    1.212237   -0.179231
H       0.822698    0.081043    2.016944
H      -0.016614   -2.321068    2.207676
H       0.995472   -3.956713    0.682977
H       1.492789   -1.770813   -1.445235
H       1.853568   -3.487413   -1.573001
H       0.170041   -2.946018   -1.547722
H       2.819720   -2.838643    1.953447
