21

C       0.082445    1.174624    0.368586
C      -0.389572   -0.237180    0.061168
O      -1.016763   -0.889039    0.865689
C      -0.085867   -0.787718   -1.334805
C      -1.248941   -0.359629   -2.237531
C       1.401764   -0.704126   -1.843273
C       1.759648   -1.737486   -0.731605
C       0.443746   -2.262754   -1.382185
C       1.108330   -1.933883   -2.751786
H       1.176406    1.187357    0.438049
H      -0.189387    1.868973   -0.433115
H      -0.343319    1.510763    1.314990
H      -1.349678    0.731277   -2.260666
H      -1.135717   -0.696758   -3.268830
H      -2.187754   -0.767779   -1.849428
H       1.956838    0.196469   -2.113739
H       2.655952   -2.336793   -0.908391
H       1.707453   -1.411857    0.309368
H      -0.113287   -3.158455   -1.108677
H       0.466648   -1.795514   -3.621368
H       1.978268   -2.542625   -3.011207
