21

C      -0.510487    1.325003    0.197569
C       0.008882   -0.073062    0.002865
O      -0.274603   -0.998760    1.079995
C       1.094238   -0.671018    0.796685
C       1.812977   -1.726041   -0.020317
C       0.810864   -2.050341   -1.155517
C      -0.012927   -0.770455   -1.337442
C      -1.199034   -0.727997   -2.261133
C       0.058798    0.024509   -2.621765
H       0.056396    2.049568   -0.394930
H      -1.564384    1.400403   -0.092543
H      -0.434018    1.603549    1.251089
H       1.613994   -0.123486    1.580552
H       2.742041   -1.295855   -0.414174
H       2.081670   -2.609080    0.567565
H       1.306923   -2.362937   -2.078261
H       0.154079   -2.865151   -0.839543
H      -1.436605   -1.629742   -2.816142
H      -2.068639   -0.152388   -1.961601
H       0.034435    1.107832   -2.575842
H       0.681763   -0.369497   -3.418237
