18

C      -0.157988    1.611025   -0.033789
C       1.361913    1.372347   -0.024047
C       1.248009    0.162810    0.951784
C      -0.050401    0.076577    0.044450
C       1.213528    0.008874   -0.870510
C       1.851161   -0.250322   -2.188501
C       3.082563   -0.701145   -1.912536
C       3.325176   -0.800184   -0.403151
N       1.937102   -0.853950    0.089828
H      -0.576750    2.109271    0.845819
H      -0.590368    2.027587   -0.948144
H       2.166375    2.105879   -0.083811
H       1.284942    0.161758    2.042269
H      -0.825172   -0.685869    0.121650
H       1.440824   -0.032585   -3.164924
H       3.849402   -0.931399   -2.643063
H       3.890673   -1.690801   -0.109691
H       3.899978    0.081712   -0.066785
