21

C       0.455375    1.413509   -0.288534
C      -0.101388    0.039845    0.086176
O       0.094926   -0.911077   -0.973980
C       1.260101   -1.695869   -0.719687
C       1.474802   -1.674777    0.780892
C       0.591084   -0.552176    1.302629
C       0.302029   -1.974067    1.694277
C      -0.925445   -2.740707    1.257405
O       0.660734   -2.204547    3.038657
H       1.544062    1.380110   -0.400002
H       0.020940    1.747431   -1.234622
H       0.214383    2.152249    0.483291
H      -1.188532    0.113832    0.216283
H       1.072056   -2.692068   -1.137171
H       2.142154   -1.278296   -1.229738
H       2.472776   -1.827292    1.175166
H       0.935547    0.114253    2.084534
H      -1.207081   -2.503163    0.230685
H      -0.740983   -3.821014    1.317961
H      -1.765162   -2.509663    1.920660
H       0.894052   -3.136028    3.121996
