18

C      -0.757417    1.262911   -0.167712
C       0.107619    0.024019    0.079137
O       0.901069   -0.313657   -1.080571
C       1.659692    0.656180   -1.639656
N       1.444973    1.043116   -2.821256
O       2.656083    1.150893   -0.857580
C       3.160121    0.328903    0.208452
C       2.246633    0.231352    1.401120
C       0.924196    0.117641    1.338690
H      -0.139792    2.160842   -0.255269
H      -1.335453    1.141538   -1.086829
H      -1.447159    1.404859    0.669645
H      -0.552905   -0.846134    0.172486
H       2.181437    1.689143   -3.104182
H       3.407482   -0.665924   -0.183569
H       4.096356    0.813197    0.496073
H       2.734708    0.259726    2.371615
H       0.343643    0.079800    2.257861
