19

C      -0.014290    1.561949    0.086191
C       0.059546    0.034367    0.027274
C       0.607990   -0.483236   -1.309323
C       0.725042   -2.004620   -1.346187
C       1.459607   -2.659302   -2.557794
N       2.423055   -3.201752   -1.596484
C       1.862230   -2.621006   -0.485482
O       2.177902   -2.602286    0.675588
H       0.977728    2.011158   -0.035438
H      -0.657046    1.961356   -0.706782
H      -0.417217    1.903360    1.044591
H       0.689057   -0.346177    0.838737
H      -0.940464   -0.388785    0.191389
H      -0.039567   -0.149408   -2.131514
H       1.595937   -0.040109   -1.496376
H      -0.240484   -2.474684   -1.134262
H       0.892568   -3.419104   -3.104718
H       1.889897   -1.942310   -3.265520
H       3.277534   -3.724997   -1.716940
