18

C      -1.250270    0.786945   -0.043463
C      -0.114600   -0.197622    0.062380
N       0.670478   -0.410802    1.036438
O      -0.001504   -0.897857   -1.087252
C       1.026735   -1.884435   -1.138175
C       0.904541   -2.607200   -2.486971
O       2.029105   -3.458665   -2.675135
C      -0.361199   -3.333428   -2.610164
C      -1.374024   -3.976636   -2.682066
H      -1.078126    1.472034   -0.879145
H      -2.186965    0.259159   -0.246579
H      -1.354828    1.363699    0.876637
H       0.444698    0.198586    1.818974
H       2.012682   -1.415864   -1.067332
H       0.921276   -2.585467   -0.303815
H       0.968520   -1.855722   -3.282413
H       1.883382   -4.253958   -2.150803
H      -2.275219   -4.533329   -2.760486
