21

O      -0.074815    1.464539    0.008145
C       0.011471    0.047157   -0.012013
C      -1.409821   -0.505475    0.031947
C      -1.457694   -2.012978    0.015471
C      -1.005408   -2.834301   -1.233377
C      -1.981373   -3.904709   -0.757790
C      -1.926126   -3.923242    0.778541
C      -0.917591   -2.863761    1.208455
C      -2.772868   -2.907348    0.051976
H       0.818158    1.819989   -0.019305
H       0.521999   -0.307178   -0.921991
H       0.585119   -0.328549    0.850551
H      -1.902253   -0.122351    0.934492
H      -1.964887   -0.101147   -0.823788
H      -1.349222   -2.367351   -2.161742
H       0.059437   -3.083820   -1.319925
H      -2.361299   -4.756243   -1.307746
H      -2.266310   -4.788105    1.333692
H       0.150504   -3.114369    1.212258
H      -1.193432   -2.419625    2.170103
H      -3.827018   -2.674108    0.092701
