15

C       0.008010    1.537584    0.077943
C       0.028299    0.039225    0.029361
C      -0.039195   -0.768686   -1.108150
N       0.011128   -2.082609   -0.692044
C       0.107248   -2.133666    0.656860
C       0.120570   -0.834582    1.138469
C      -0.143299   -0.483272   -2.518184
O      -0.190158   -1.348176   -3.377837
H       0.918656    1.930823    0.543596
H      -0.071197    1.980179   -0.917613
H      -0.837948    1.902853    0.670942
H      -0.022848   -2.848281   -1.345792
H       0.159262   -3.074933    1.181697
H       0.189387   -0.548875    2.177453
H      -0.179281    0.592679   -2.784156
