21

C       0.123060    1.513001    0.299990
C      -0.043109   -0.008235    0.286680
C      -1.348732   -0.464082   -0.379278
C      -1.494435   -1.969596   -0.372352
N      -1.977651   -2.596193    0.870572
C      -2.784393   -2.712667   -0.347758
C      -4.145708   -2.031266   -0.331007
C      -5.184151   -2.908383    0.211224
N      -5.994151   -3.618399    0.629362
H       1.059855    1.806440    0.783393
H       0.131043    1.921622   -0.716765
H      -0.696862    1.995544    0.843372
H       0.808061   -0.466853   -0.234174
H      -0.022350   -0.395821    1.312169
H      -2.195020   -0.005455    0.143441
H      -1.381437   -0.103927   -1.416735
H      -0.689413   -2.486618   -0.896428
H      -1.489666   -3.463951    1.070839
H      -2.793326   -3.674544   -0.857096
H      -4.104340   -1.124071    0.277099
H      -4.436270   -1.736729   -1.346504
