19

C      -0.106649    1.675550    0.075386
C       1.262086    2.085918    0.658048
C       2.496436    1.763785   -0.151173
O       2.822332    0.402111   -0.404495
C       2.599313    1.241329   -1.543966
C       1.553617    0.893745   -2.539503
C       0.486414    0.086624   -2.430843
C      -0.081251   -0.487762   -1.215931
C      -0.326685    0.200070   -0.094358
H      -0.876200    2.074589    0.746471
H      -0.232075    2.176774   -0.889926
H       1.256910    3.171685    0.818504
H       1.394203    1.633790    1.649637
H       3.361218    2.356250    0.163864
H       3.532057    1.519081   -2.042437
H       1.792477    1.267954   -3.533067
H      -0.024842   -0.171913   -3.358129
H      -0.377761   -1.533902   -1.267141
H      -0.753732   -0.329538    0.754830
