17

O      -0.210381    1.383587   -0.015032
N      -0.005615   -0.016761   -0.003767
C      -1.121891   -0.640171   -0.023021
C      -1.148739   -2.182108    0.027597
C      -2.579629   -2.483408   -0.450273
C      -3.797785   -3.106790    0.320533
N      -4.516215   -1.804729    0.078728
C      -3.291729   -1.197556   -0.177778
C      -2.500463   -0.130286    0.029383
H       0.692562    1.714652    0.018185
H      -0.362761   -2.634721   -0.579645
H      -0.998813   -2.504967    1.064573
H      -2.612069   -2.779855   -1.502375
H      -4.290069   -3.975036   -0.123068
H      -3.591994   -3.284010    1.381986
H      -5.152901   -1.417665    0.765089
H      -2.757786    0.875195    0.323183
