16

O       0.130598    1.354600    0.113415
C       0.070225   -0.018197    0.071145
C       0.947661   -0.789478    1.039706
O       0.203664   -1.606766    1.961246
C       0.620627   -2.175872    0.705641
C      -0.403385   -2.003830   -0.412054
C      -1.292937   -0.776775   -0.052169
N      -1.361928   -0.303767   -1.490311
C       0.049821   -0.800102   -1.310480
H      -0.488276    1.662300   -0.565819
H       1.911473   -0.421185    1.372350
H       1.317297   -3.005529    0.759269
H      -0.867186   -2.869246   -0.884834
H      -2.147880   -0.735115    0.621091
H      -1.901452   -0.965002   -2.054885
H       0.779215   -0.783128   -2.123161
