17

C       0.357182    1.363352    0.140210
O       0.534175   -0.034906    0.108079
C       0.258099   -0.574501   -1.168275
C       0.467726   -2.015876   -1.159776
C       0.641787   -3.206439   -1.190734
C       0.845683   -4.657800   -1.177683
O       2.034878   -5.071134   -1.791762
C       0.811534   -5.121798    0.284926
O       1.735851   -5.725761    0.763711
H       1.029372    1.877203   -0.565129
H      -0.678598    1.650624   -0.101282
H       0.589070    1.693548    1.154849
H      -0.781431   -0.351128   -1.466664
H       0.908380   -0.115964   -1.933826
H      -0.016121   -5.136582   -1.676253
H       2.569877   -5.457747   -1.079276
H      -0.096121   -4.857970    0.859112
