20

C      -0.669279    1.335773   -0.042471
C       0.090737    0.010617   -0.073242
C       1.297472   -0.022243   -1.047848
C       2.216533   -1.038322   -0.415915
C       1.864617   -1.320202    0.837406
C       0.662544   -0.514559    1.283626
C       1.073622    0.608974    2.276316
C       1.639043    0.070282    3.510993
N       2.077668   -0.377361    4.482212
H      -0.026529    2.172273    0.252549
H      -1.066868    1.569464   -1.035384
H      -1.518099    1.301202    0.649243
H      -0.603972   -0.767517   -0.411654
H       0.993147   -0.287823   -2.066596
H       1.790291    0.958921   -1.124258
H       3.072929   -1.457512   -0.932396
H       2.387589   -1.993906    1.506364
H      -0.079566   -1.135539    1.798445
H       1.815589    1.270562    1.815480
H       0.207424    1.226233    2.537850
