21

C       0.041439    1.507883    0.092804
C      -0.035119   -0.002130   -0.026251
C       0.669396   -0.623772   -1.248765
C       0.098109   -2.056033   -1.175203
C       0.788449   -2.741303    0.030764
C       0.517898   -1.939529    1.320938
O       0.605008   -0.525807    1.161485
C      -1.358619   -1.754213   -0.834808
C      -1.437670   -0.593405   -0.183259
H       1.083446    1.831011    0.173900
H      -0.406941    1.984648   -0.783903
H      -0.489144    1.849094    0.986834
H       0.358208   -0.123029   -2.170420
H       1.758146   -0.574311   -1.157281
H       0.230583   -2.641177   -2.089136
H       0.428634   -3.766714    0.176332
H       1.864512   -2.799668   -0.169172
H      -0.475909   -2.209795    1.703248
H       1.247166   -2.192999    2.096199
H      -2.176477   -2.439482   -1.028363
H      -2.322497   -0.154994    0.263544
