16

C      -0.139623    1.557674    0.003604
C       0.028496    0.036538    0.010422
N       0.683514   -0.468623   -1.186979
C       0.087360   -0.860501   -2.384574
C       1.113946   -1.197411   -3.215822
N       2.335666   -1.023223   -2.584943
C       2.020017   -0.587951   -1.394452
O       2.875154   -0.264589   -0.404144
H       0.834858    2.051130   -0.045044
H      -0.733158    1.881548   -0.856208
H      -0.646615    1.885921    0.916248
H       0.625758   -0.275504    0.871279
H      -0.943460   -0.459613    0.089870
H      -0.983653   -0.864835   -2.499890
H       1.057739   -1.560696   -4.230166
H       3.758837   -0.445538   -0.747947
