17

N      -0.103340    1.179947    0.332318
C      -0.109846   -0.068566    0.119518
O       1.030308   -0.852370    0.051776
C       0.666069   -2.203505   -0.208509
C      -0.841385   -2.190814   -0.272962
C      -1.268876   -0.931903   -0.085367
N      -1.537684   -3.339399   -0.595874
C      -1.626966   -4.471048    0.324651
C      -2.826913   -3.641051   -0.001934
H       0.853999    1.516302    0.442732
H       1.112183   -2.536898   -1.154470
H       1.051327   -2.848642    0.592830
H      -2.281461   -0.560130   -0.089542
H      -1.498755   -5.451302   -0.123612
H      -1.197989   -4.351832    1.316602
H      -3.191692   -2.968302    0.770474
H      -3.580921   -4.019840   -0.684815
