19

C       0.007362   -1.131279   -0.260984
C       0.034297    0.062381   -0.134570
C       0.032250    1.510950    0.018978
O       1.359883    1.999332    0.026055
C       1.422416    3.404349    0.168174
C       2.880095    3.814973    0.131500
C       3.558697    3.730810   -1.252108
O       3.636275    5.170400   -1.349718
C       3.131828    5.332110   -0.009851
H      -0.009733   -2.187181   -0.373140
H      -0.543486    1.970558   -0.802795
H      -0.483955    1.784334    0.955425
H       0.868125    3.900555   -0.647945
H       0.955899    3.720023    1.117772
H       3.421816    3.322390    0.941237
H       4.552513    3.266510   -1.257705
H       2.955103    3.290517   -2.054391
H       2.242346    5.975518    0.022755
H       3.889163    5.743554    0.669668
