21

C       0.124995    1.429824   -0.389969
C       0.046694    0.008351    0.173862
O       0.556837   -0.060574    1.497683
C      -1.372977   -0.558279    0.141756
O      -2.155507    0.225133    1.033243
C      -3.460479   -0.249560    1.219817
C      -3.668473   -1.416741    2.217188
O      -4.528749   -0.599582    3.037971
C      -4.264100    0.571649    2.238828
H       1.144771    1.809852   -0.292052
H      -0.154742    1.450513   -1.448985
H      -0.550720    2.096383    0.153892
H       0.683146   -0.654855   -0.424283
H      -0.118800    0.335757    2.061307
H      -1.796082   -0.522371   -0.874667
H      -1.354506   -1.606926    0.472859
H      -3.959729   -0.395682    0.252632
H      -4.183103   -2.310666    1.847203
H      -2.747426   -1.709218    2.738858
H      -3.647041    1.310420    2.765786
H      -5.184351    1.046957    1.882410
