20

C      -0.124714    1.597350   -0.077417
C      -0.131442    0.067100   -0.085925
C       0.836460   -0.530576   -1.127648
C       0.855259   -2.025961   -1.156779
C       1.777908   -2.926867   -0.658799
C       1.284151   -4.235066   -0.923724
O       1.867941   -5.431476   -0.613071
C       0.079235   -4.112067   -1.573474
N      -0.164446   -2.757487   -1.704261
H       0.872094    1.987635    0.156648
H      -0.414855    2.001963   -1.053822
H      -0.820799    1.995021    0.667502
H       0.137692   -0.317121    0.904906
H      -1.147308   -0.297574   -0.284801
H       0.578219   -0.135491   -2.121041
H       1.852330   -0.177255   -0.918188
H       2.703289   -2.671836   -0.162270
H       2.699286   -5.252148   -0.165591
H      -0.600692   -4.857318   -1.948570
H      -0.973738   -2.364963   -2.151383
