19

C      -0.160999    1.559745   -0.029907
C       0.006174    0.047688   -0.010294
O      -1.243920   -0.581144   -0.254190
C       1.240086   -0.602074   -0.698655
C       2.128305   -0.179100    0.523227
C       3.112001   -1.318302    0.758006
O       2.273582   -2.457069    0.517631
C       1.032100   -1.857427    0.207210
C       0.762672   -0.636757    1.146017
H       0.764532    2.093960    0.194019
H      -0.498604    1.892915   -1.019889
H      -0.920530    1.860544    0.698289
H      -1.625215   -0.190834   -1.047418
H       1.522783   -0.581598   -1.752992
H       2.487331    0.842092    0.636579
H       3.955854   -1.313038    0.056361
H       3.506243   -1.346305    1.781911
H       0.274190   -2.604696   -0.001477
H       0.493404   -0.657067    2.202943
