19

C      -0.002764    1.511156    0.018826
C      -0.041544    0.003630    0.064552
C       1.230985   -0.774522   -0.208757
C       0.616999   -0.790069    1.179632
O       1.251198   -0.151060    2.245031
C      -0.287473   -1.949420    1.442001
C      -1.331768   -1.955832    0.610023
C      -1.354699   -0.731101   -0.282018
O      -2.526366    0.053864   -0.087466
H       0.886158    1.882428    0.535450
H       0.016034    1.877687   -1.013271
H      -0.883938    1.940007    0.502414
H       1.195958   -1.686214   -0.797725
H       2.127438   -0.174152   -0.340914
H       2.118262   -0.551242    2.366258
H      -0.061730   -2.698955    2.192955
H      -2.100739   -2.717028    0.549573
H      -1.376057   -0.999127   -1.345361
H      -2.651083    0.143641    0.864263
