16

C      -0.016609    1.534801    0.073541
C       1.343688    2.179208   -0.039027
C       2.422223    1.516945   -0.461841
C       2.362253    0.101582   -0.896736
C       1.831612   -1.023650   -0.005641
O       0.941522   -0.531823    0.983484
C       0.078236    0.022939   -0.063959
C       1.010262   -0.530828   -1.156168
H      -0.458116    1.763043    1.052487
H      -0.715488    1.941205   -0.673570
H       1.423829    3.222412    0.253287
H       3.388275    2.011838   -0.501252
H       3.145905   -0.236517   -1.568944
H       2.356540   -1.952123    0.187705
H      -0.901531   -0.463801   -0.033134
H       0.710484   -0.992164   -2.086995
