17

C      -0.478725    1.358873    0.003583
C       0.084461   -0.044919   -0.105874
C       1.462571   -0.251918   -0.760499
O       1.948082   -1.008681    0.369962
C       0.758596   -0.715019    1.158787
C       1.058424    0.189752    2.267656
C       1.309726    0.947936    3.165440
C       0.103387   -1.925628    1.642674
C      -0.459828   -2.920840    2.011347
H       0.249640    2.048333    0.438615
H      -0.755234    1.731415   -0.988655
H      -1.376477    1.377262    0.629323
H      -0.661237   -0.731996   -0.509888
H       1.488344   -0.840234   -1.683401
H       2.038037    0.671971   -0.903551
H       1.535861    1.605719    3.968429
H      -0.946050   -3.802864    2.349034
