20

C      -0.230766    1.579490   -0.237287
C       0.013634    0.075107   -0.035435
C      -1.288896   -0.661657    0.300821
C       0.720615   -0.515879   -1.234830
C       0.087019   -0.939945   -2.529834
C       0.857559   -1.958200   -1.706020
N       2.247123   -2.144059   -2.060917
C       2.794904   -1.011131   -1.877315
O       2.047161    0.011902   -1.392078
H       0.703857    2.103555   -0.452976
H      -0.917181    1.751906   -1.073794
H      -0.673842    2.023552    0.659831
H       0.700368   -0.047809    0.812865
H      -2.034887   -0.544085   -0.492465
H      -1.123930   -1.731645    0.459973
H      -1.722578   -0.251341    1.217410
H      -0.992014   -1.043117   -2.533877
H       0.523005   -0.602364   -3.464362
H       0.345060   -2.810626   -1.277203
H       3.832888   -0.765784   -2.066600
