20

C      -0.232890    1.587920   -0.177760
C      -0.025945    0.085972   -0.066850
C       1.219901   -0.635296   -0.681889
C       2.097275   -0.071065    0.475533
C       0.765183   -0.570588    1.114402
C       0.893411   -1.840316    0.251478
O       0.396066   -0.615985    2.461380
C       0.674172    0.459882    3.228149
N       0.252986    0.508254    4.416835
H       0.676040    2.171278   -0.008093
H      -0.605255    1.846401   -1.174933
H      -0.984348    1.923745    0.545342
H      -0.965460   -0.436275   -0.278843
H       1.491033   -0.681654   -1.733523
H       2.991530   -0.645960    0.727741
H       2.305152    0.998947    0.471456
H      -0.030306   -2.386381    0.046939
H       1.722372   -2.508894    0.493558
H       1.282482    1.216512    2.718385
H       0.567464    1.370136    4.858183
