16

C      -0.086377    1.470810   -0.063650
N       0.055156    0.016224   -0.014382
C       0.732356   -0.504522    1.194272
C       0.707484   -1.978887    1.121335
C       0.659569   -3.175993    1.058191
C       2.135189   -0.039215    1.207566
C       3.274064    0.337947    1.227137
C       0.072314   -0.082184    2.456889
C      -0.512019    0.287397    3.439502
H       0.906033    1.927430   -0.106768
H      -0.618444    1.728656   -0.982921
H      -0.628317    1.900685    0.792082
H      -0.857092   -0.427178   -0.057834
H       0.628845   -4.236434    1.004841
H       4.284154    0.666347    1.244280
H      -1.014901    0.602398    4.320636
