18

O       0.053606   -0.043489    0.045189
C      -0.034110    1.163426   -0.018954
C      -1.373751    1.869052   -0.165237
C      -1.250832    3.250167   -0.826961
C      -0.061617    4.023454   -0.278057
C       0.207502    3.985195    1.255447
C       1.449905    3.178168    0.912518
C       1.203528    2.006816    0.016099
N       1.283030    3.371970   -0.568718
H      -2.045704    1.200102   -0.709177
H      -1.795295    1.970274    0.843697
H      -1.114002    3.138555   -1.909651
H      -2.172562    3.824755   -0.681997
H      -0.037811    5.035323   -0.686340
H       0.460927    4.971672    1.647841
H      -0.534869    3.530613    1.916644
H       2.417772    3.279016    1.394425
H       2.092477    1.421058   -0.199397
