19

C      -0.084437    1.471286   -0.094805
C       0.076398   -0.032405   -0.053005
C       1.466805   -0.656687   -0.041831
C       0.609374   -0.687640    1.181104
O       0.927653    0.041609    2.374228
C       0.551186   -1.076892    3.216242
C       0.135115   -1.872689    1.981770
C      -0.914874   -2.860885    1.756600
O       0.480687   -3.215232    1.724894
H       0.664980    1.960677    0.533134
H       0.022526    1.850551   -1.116496
H      -1.070049    1.772054    0.275971
H      -0.687855   -0.593127   -0.587827
H       1.634819   -1.591721   -0.566224
H       2.315101    0.020388   -0.021462
H       1.407856   -1.497172    3.755253
H      -0.242955   -0.809461    3.921845
H      -1.477915   -3.257400    2.600625
H      -1.426641   -2.901125    0.796069
