18

O      -0.053516    1.409774    0.109328
C       0.027393   -0.000885   -0.045438
C      -1.382654   -0.535157   -0.057614
C      -2.225861   -0.480459    1.270231
N      -2.712708   -1.876447    1.091720
C      -3.078170   -2.091864   -0.392987
C      -3.327380   -0.919523   -1.268040
C      -2.323444   -0.043561   -1.132394
C      -1.667169   -2.067288    0.041385
H       0.838592    1.768318    0.093434
H       0.536956   -0.271992   -0.984348
H       0.591647   -0.462159    0.781736
H      -1.580663   -0.473126    2.152728
H      -2.993461    0.293939    1.355473
H      -3.612457   -3.026260   -0.511725
H      -4.224611   -0.794128   -1.860427
H      -2.258209    0.952839   -1.550196
H      -0.960053   -2.892200    0.038663
