19

O       0.352815    0.611926   -0.950047
C      -0.243190    0.363749    0.315023
C      -1.507025   -0.436885    0.211378
C      -2.016520   -1.333557    1.302944
C      -1.679553   -1.944141   -0.028935
C      -2.816509   -1.680498   -1.039762
C      -2.637610   -0.133978   -0.782076
C      -2.519209   -2.095672   -2.396827
C      -2.244183   -2.435651   -3.517482
H       0.450864   -0.238828   -1.392243
H       0.456655   -0.143670    0.999701
H      -0.447146    1.354165    0.739751
H      -1.310282   -1.552998    2.098278
H      -3.050824   -1.264943    1.634166
H      -0.931196   -2.720256   -0.137564
H      -3.787321   -2.084748   -0.729655
H      -3.510922    0.390844   -0.382585
H      -2.277518    0.379393   -1.673478
H      -2.018902   -2.738456   -4.509904
