18

C      -0.036733    1.451121    0.009550
N       0.036110    0.006543   -0.002746
C       0.127178   -0.785745   -1.114350
O       0.170284   -0.154116   -2.319700
C       0.152920   -2.104732   -0.742174
C       0.063923   -2.137712    0.693649
C       0.040044   -3.346468    1.576481
C       0.002014   -0.834631    1.107407
O      -0.150454   -0.293514    2.354969
H       0.898042    1.902461   -0.340464
H      -0.849354    1.803716   -0.632009
H      -0.226837    1.767344    1.035462
H       0.179892   -0.826812   -3.006908
H       0.219841   -2.955288   -1.403878
H       0.978107   -3.914147    1.529559
H      -0.122993   -3.055971    2.618403
H      -0.764098   -4.037314    1.296531
H       0.703588   -0.270889    2.801048
