19

C      -1.003091    1.019134    0.185888
C       0.001837   -0.105242   -0.035089
C       0.950384   -0.066252   -1.273418
C       2.203682   -0.360821   -0.365925
C       2.659665   -1.832517   -0.405641
C       3.319648    0.554956   -0.487836
C       4.236219    1.328011   -0.581882
C       1.254967   -0.103647    0.853689
O       1.450304    0.101789    2.013060
H      -0.521875    1.998308    0.096478
H      -1.814270    0.971239   -0.547206
H      -1.440475    0.950827    1.186153
H      -0.498272   -1.078234    0.049849
H       0.764129   -0.808210   -2.051460
H       1.001239    0.925756   -1.725459
H       3.154220   -2.046344   -1.357397
H       3.363225   -2.035035    0.405549
H       1.805011   -2.508519   -0.300649
H       5.047015    2.009149   -0.660504
