17

C       0.183917    1.493440    0.256328
C       0.015015   -0.000347    0.094677
N       0.641368   -0.675273   -1.149732
C       2.068562   -1.289719   -0.980057
C       3.071982   -0.963030    0.143072
C       2.092371   -0.608294    1.254229
C       0.854339   -1.012395    0.891359
C       0.895471   -1.901542   -0.353664
H       1.236620    1.787254    0.255715
H      -0.321480    2.010574   -0.565577
H      -0.267714    1.831757    1.194911
H      -1.046937   -0.257769    0.011539
H       2.418102   -1.586862   -1.964901
H       3.738583   -1.827257    0.280017
H       3.714056   -0.095191   -0.047489
H       2.247627    0.304090    1.822546
H       0.405331   -2.850191   -0.542488
