18

C      -0.184494    1.505266    0.052485
C       0.082529    0.006995    0.049291
C       0.779542   -0.505588   -1.273813
C       1.518656   -1.734442   -0.741575
O       0.732938   -2.886361   -0.961612
C       3.055271   -2.013201   -0.623750
O       2.975179   -1.795167    0.850871
C       1.722942   -1.266598    0.664697
N       1.037533   -0.339219    1.169089
H       0.752943    2.062960   -0.042897
H      -0.838325    1.780497   -0.782054
H      -0.665139    1.810376    0.985553
H      -0.861428   -0.530902    0.201349
H       0.077522   -0.747944   -2.074202
H       1.476050    0.261488   -1.627379
H       0.962506   -3.553282   -0.304238
H       3.368597   -3.033592   -0.852349
H       3.728782   -1.275731   -1.065821
