12

N       0.052477    1.369682   -0.149770
C      -0.071856   -0.009128   -0.065265
C      -1.143354   -0.854120   -0.107202
C      -0.577887   -2.176799   -0.065288
O      -1.248118   -3.360525   -0.079915
C       0.770421   -2.043544   -0.000076
O       1.085220   -0.691971    0.000587
H       0.898539    1.706651    0.291705
H      -0.757090    1.863281    0.199231
H      -2.186219   -0.583803   -0.163759
H      -2.188267   -3.178502   -0.160608
H       1.595473   -2.729038    0.049733
