18

C       0.008099    1.426060   -0.034880
O      -0.008599    0.019834    0.016953
C       0.626229   -0.575518   -1.088423
C       0.577777   -2.081116   -0.976121
N       1.158687   -2.739152   -1.986570
C       1.149108   -4.071791   -1.945726
C       0.571061   -4.809266   -0.915247
C      -0.029445   -4.114920    0.129001
C      -0.028380   -2.724147    0.102126
H       1.036041    1.821473   -0.044529
H      -0.513472    1.807380   -0.926882
H      -0.503734    1.792454    0.858061
H       0.144420   -0.270852   -2.032967
H       1.679499   -0.255127   -1.159801
H       1.628701   -4.578277   -2.780593
H       0.594109   -5.892985   -0.936323
H      -0.492697   -4.647172    0.953758
H      -0.481420   -2.135812    0.888780
