21

C       0.115169    1.544125   -0.018517
C      -0.021153    0.021496    0.058737
O       0.713347   -0.480961    1.176528
C      -1.479193   -0.529505    0.039098
C      -2.214735   -0.029535   -1.217708
C      -1.402702   -2.067653   -0.004920
C      -2.254789   -0.099930    1.297998
H       1.174939    1.811634    0.014738
H      -0.310097    1.949230   -0.940226
H      -0.381980    2.037986    0.824759
H       0.491080   -0.410506   -0.811043
H       0.436390    0.013212    1.955054
H      -1.638148   -0.242230   -2.125559
H      -3.182571   -0.532235   -1.318229
H      -2.406684    1.047208   -1.184744
H      -0.819966   -2.450639    0.835839
H      -2.404462   -2.508978    0.032967
H      -0.922602   -2.409672   -0.929027
H      -2.356566    0.987836    1.370967
H      -3.265862   -0.520079    1.283860
H      -1.768474   -0.462761    2.209827
