23

C      -0.089055    1.370778    0.166557
O      -0.021925   -0.022629   -0.029356
C       0.680500   -0.486841   -1.191781
C       2.134957    0.010856   -1.197926
C       0.586872   -2.033705   -1.156272
C       0.277625   -2.500996   -2.601601
C      -0.696513   -3.682207   -2.682503
C      -0.232244   -1.231584   -3.246426
C      -0.030093   -0.153749   -2.493739
H       0.893511    1.822288    0.364377
H      -0.545026    1.897837   -0.684324
H      -0.721319    1.530872    1.044124
H       2.607187   -0.193395   -0.231264
H       2.702003   -0.504989   -1.978423
H       2.204251    1.084195   -1.398655
H       1.485866   -2.496839   -0.740493
H      -0.251206   -2.285906   -0.499984
H       1.209793   -2.802770   -3.103305
H      -1.652450   -3.430424   -2.210739
H      -0.896641   -3.961972   -3.722585
H      -0.290690   -4.562704   -2.173186
H      -0.686664   -1.229743   -4.232909
H      -0.281066    0.862874   -2.775477
