16

O      -0.069320    1.449684   -0.030595
C       0.035922    0.037429    0.022354
C      -1.382833   -0.519451   -0.027528
C      -1.404738   -2.056726    0.031340
O      -0.785274   -2.573303    1.203019
C      -2.771253   -2.568916   -0.116598
C      -3.904968   -2.978834   -0.200568
C      -5.184157   -3.446023   -0.300039
N      -6.273000   -3.841948   -0.383674
H       0.813247    1.821480    0.056069
H       0.616099   -0.356147   -0.829050
H       0.532871   -0.302531    0.941338
H      -1.963488   -0.112922    0.809082
H      -1.873739   -0.184125   -0.947304
H      -0.802181   -2.453331   -0.796220
H      -1.319429   -2.310607    1.962070
