17

C      -0.111462    1.407528   -0.065875
N      -0.200750   -0.036464   -0.236130
C       0.591332   -0.624586   -0.993893
O       1.640706   -0.169714   -1.773955
C       1.935968   -1.510143   -2.254719
C       0.794104   -2.097362   -1.370094
C       1.222248   -2.995970   -0.203275
C      -0.308250   -2.683485   -2.124863
N      -1.166734   -3.162401   -2.732343
H       0.702166    1.875341   -0.631428
H      -1.061065    1.857684   -0.373089
H       0.020648    1.630753    0.997793
H       1.790599   -1.587265   -3.333473
H       2.943768   -1.822427   -1.971228
H       2.064692   -2.542345    0.325479
H       0.394591   -3.111546    0.499801
H       1.518666   -3.984510   -0.563773
