14

O       0.026125   -0.049512    0.002344
C      -0.006761    1.144650    0.008878
C      -1.226272    2.080804    0.031697
C      -0.692837    3.542199    0.031420
C       0.788865    3.342334    0.008282
N       1.875730    4.071132   -0.004206
C       2.860918    3.104439   -0.023855
N       2.451503    1.847986   -0.024103
N       1.104291    2.018845   -0.003170
H      -1.848635    1.856349   -0.838128
H      -1.822876    1.847224    0.917025
H      -1.029961    4.110225   -0.839911
H      -1.003712    4.100927    0.918387
H       3.912369    3.352206   -0.038271
