23

C       0.243917    1.376722    0.251281
C      -0.096887   -0.071232    0.079926
C      -0.063708   -0.809264   -1.038014
C       0.319592   -0.390910   -2.423692
C      -0.528915   -2.228158   -0.779640
C      -0.585811   -2.342219    0.765154
C       0.628411   -3.104569    1.290817
O       0.540624   -3.173316    2.707318
C      -0.591513   -0.874625    1.264044
H       1.041065    1.507165    0.994778
H       0.571468    1.848922   -0.678168
H      -0.620459    1.940468    0.626745
H       0.615054    0.659507   -2.481020
H       1.154089   -0.995576   -2.802816
H      -0.512313   -0.542515   -3.124541
H      -1.511956   -2.404764   -1.239469
H       0.144676   -2.973699   -1.226412
H      -1.478109   -2.879089    1.099841
H       0.646968   -4.113403    0.847917
H       1.548149   -2.586153    0.972381
H       1.346856   -3.577507    3.040057
H       0.032208   -0.753346    2.157403
H      -1.600029   -0.548222    1.556637
