18

C      -0.274996    1.547852   -0.177003
N       0.087387    0.149972    0.042757
C       0.746050   -0.471410   -1.101322
C       1.195914   -1.903271   -0.747361
C       2.347311   -1.916544    0.256813
N       3.036907   -3.086101    0.314240
O       2.625451   -0.961135    0.962571
C      -0.176253   -0.532749   -2.250844
N      -0.878521   -0.593368   -3.166215
H       0.570589    2.185996   -0.487869
H      -1.049163    1.615562   -0.947838
H      -0.688106    1.954633    0.749484
H       0.757638    0.088545    0.804526
H       1.632725    0.096043   -1.442432
H       0.342868   -2.434004   -0.309409
H       1.484535   -2.440780   -1.655795
H       2.804227   -3.880117   -0.255732
H       3.769307   -3.176768    0.999476
