18

C      -0.124345    1.558373   -0.080343
C       0.047212    0.050047   -0.009799
N       1.149522   -0.505358   -0.806158
C       1.785774   -1.157667    0.213377
O       2.759041   -1.855817    0.270329
C       0.748218   -0.600929    1.257537
C       1.383922    0.346199    2.282358
C      -0.048960   -1.630949    1.895804
C      -0.713456   -2.481466    2.425907
H       0.815317    2.084289    0.104779
H      -0.485348    1.851776   -1.072026
H      -0.865382    1.893903    0.652074
H      -0.906077   -0.446893   -0.218905
H       1.305318   -0.537251   -1.803329
H       2.012227    1.095976    1.795090
H       0.617683    0.855382    2.873636
H       2.014005   -0.231864    2.962569
H      -1.290565   -3.239407    2.895161
