15

C       0.140280    1.400633   -0.157822
N      -0.025155   -0.034224   -0.043081
C       0.570415   -0.622458    0.884968
O       0.419844   -1.974358    1.033981
C       1.169195   -2.584625    2.063813
C       0.442219   -3.901803    2.416460
O       0.976258   -4.834565    2.937600
C       2.572764   -2.806581    1.690574
N       3.676408   -2.954513    1.385826
H       0.795712    1.839054    0.610743
H       0.553451    1.637144   -1.143843
H      -0.840681    1.883579   -0.097160
H       1.226217   -0.157582    1.635679
H       1.150896   -1.970924    2.980119
H      -0.633986   -3.863636    2.153495
