23

C       0.033917    1.515510   -0.042880
C       0.066970   -0.014026    0.082389
C       0.735261   -0.446964    1.394340
C      -1.342500   -0.600371   -0.030503
C      -2.108539   -0.502016   -1.400073
C      -2.283702   -2.025838   -1.375528
O      -3.458527   -2.677757   -1.712609
C      -0.954358   -2.721112   -1.338606
C      -1.526217   -2.128474   -0.063111
H       1.043335    1.938015   -0.001038
H      -0.423302    1.833447   -0.985353
H      -0.545759    1.961285    0.774602
H       0.670169   -0.406513   -0.748409
H       0.171444   -0.078922    2.260427
H       0.792568   -1.537239    1.471975
H       1.753220   -0.050432    1.470624
H      -1.963394   -0.171597    0.765062
H      -3.060525    0.025184   -1.309159
H      -1.553577   -0.091371   -2.251538
H      -3.421636   -2.899895   -2.649509
H      -1.022235   -3.803616   -1.384080
H      -0.073560   -2.302767   -1.820391
H      -1.733701   -2.757174    0.794222
