15

O      -0.262046    0.094094   -0.282995
C      -0.037561    1.233459    0.048102
C       1.283526    1.854150    0.048185
C       1.937604    2.903336    0.924269
C       3.241618    2.093424    0.964319
C       2.742730    1.401090   -0.338117
C       2.695182    2.563323   -1.348981
O       3.133222    2.739294   -2.447469
C       1.657129    3.272783   -0.515131
H      -0.848440    1.913127    0.396197
H       1.472113    3.463458    1.725908
H       4.190019    2.637475    0.910083
H       3.248652    1.404840    1.811714
H       3.056677    0.405986   -0.634730
H       0.970982    4.060220   -0.796357
