21

C      -0.037796    1.360980   -0.323204
O      -0.097769    0.105682    0.314836
C      -1.332718   -0.541688    0.171994
C      -1.523203   -1.281428   -1.219809
C      -1.028041   -2.513663   -0.498154
C      -0.111227   -3.473787   -0.496330
C       0.276737   -3.792656    0.946945
C      -0.166012   -2.512387    1.733949
C      -1.307447   -1.950462    0.868924
H       0.951453    1.779245   -0.122507
H      -0.173176    1.281005   -1.411935
H      -0.802849    2.049775    0.068250
H      -2.155555    0.129942    0.459197
H      -2.580197   -1.319384   -1.504680
H      -0.937066   -0.917839   -2.067609
H       0.379411   -3.919642   -1.354038
H      -0.230740   -4.692521    1.323668
H       1.351195   -3.983058    1.045504
H      -0.455676   -2.727698    2.766278
H       0.658910   -1.794658    1.755556
H      -2.305558   -2.183321    1.259628
