19

C      -0.077370    1.540053    0.159930
C      -0.002159    0.023082   -0.045028
C       0.724198   -0.452800   -1.335002
C       0.003019    0.001164   -2.608570
C       2.200337    0.001520   -1.339470
C       0.740530   -1.975439   -1.259411
O       0.246898   -2.726288   -2.059938
H       0.914461    1.993773    0.245062
H      -0.605396    2.036336   -0.659595
H      -0.619432    1.766024    1.083373
H       0.497325   -0.427742    0.823094
H      -1.020912   -0.384763   -0.056463
H       0.036788    1.089075   -2.713831
H       0.468424   -0.441653   -3.493106
H      -1.044076   -0.314325   -2.601158
H       2.729883   -0.345043   -0.444970
H       2.726242   -0.389164   -2.216587
H       2.271857    1.091926   -1.369663
H       1.270311   -2.371139   -0.358888
