17

O       0.006491    1.371355   -0.095507
C       0.033342   -0.046234   -0.045259
C      -1.406770   -0.529250    0.071573
C      -2.309276   -0.132747   -1.123146
C      -3.277776   -1.304700   -1.319257
O      -4.377491   -1.263660   -1.806776
C      -2.632270   -2.523498   -0.704208
O      -1.262497   -2.665066   -1.133656
C      -1.511771   -2.048694    0.127990
H       0.901188    1.686481   -0.252746
H       0.483540   -0.476530   -0.952758
H       0.616434   -0.405659    0.818595
H      -1.830140   -0.121532    0.997975
H      -2.861409    0.793984   -0.966143
H      -1.719590   -0.008164   -2.037838
H      -3.189395   -3.439503   -0.537513
H      -1.171167   -2.605447    0.997852
