19

C       0.764373    1.371517   -0.667368
N       0.947020   -0.039192   -0.943780
C      -0.068372   -0.709268   -1.267507
O      -0.054109   -2.022258   -1.567057
C       1.220902   -2.702888   -1.536441
C       1.560433   -3.173609   -0.126545
C       1.182542   -3.879022   -2.521052
N       0.069674   -3.971422   -3.290788
O       2.124306   -4.645678   -2.590298
H       1.390821    1.962937   -1.344286
H      -0.277252    1.714114   -0.772558
H       1.098694    1.593287    0.352189
H      -1.091630   -0.323435   -1.350434
H       1.986982   -2.005145   -1.887406
H       1.724424   -2.314405    0.525971
H       0.748735   -3.785327    0.278708
H       2.467318   -3.779417   -0.169237
H      -0.704145   -3.347068   -3.149127
H      -0.005308   -4.742007   -3.933302
