13

O      -0.190306    1.328351    0.005717
N      -0.008893   -0.072468    0.074427
C      -1.122917   -0.669879    0.097151
C      -1.481942   -2.105041    0.001870
C      -2.894547   -2.152276    0.628423
O      -3.191755   -0.866114    1.171012
C      -2.601973   -0.310655   -0.043096
C      -2.767655   -1.702933   -0.774930
H       0.719022    1.644929    0.004955
H      -0.850180   -2.970682   -0.133293
H      -3.321159   -3.035899    1.084047
H      -2.967246    0.671674   -0.321213
H      -3.145795   -2.017004   -1.736490
