27

C      -0.072354    1.494651    0.231313
C      -0.012287   -0.007076   -0.070595
C       0.745918   -0.444316   -1.352537
C       0.084251    0.174645   -2.598368
C       2.219878   -0.005016   -1.281785
C       0.643566   -1.993477   -1.412886
C       1.318435   -2.691722   -2.577534
C       2.742836   -3.183869   -2.479830
C       1.603684   -4.171492   -2.491604
H       0.923355    1.929239    0.362360
H      -0.579707    2.054895   -0.559933
H      -0.627130    1.669933    1.158751
H       0.446945   -0.518054    0.786432
H      -1.038716   -0.393118   -0.133542
H       0.119925    1.267699   -2.568248
H       0.592056   -0.135805   -3.516527
H      -0.967331   -0.124279   -2.679155
H       2.710613   -0.406039   -0.387306
H       2.778151   -0.357015   -2.153383
H       2.310442    1.085083   -1.251244
H       1.053060   -2.405344   -0.479885
H      -0.423100   -2.260347   -1.415161
H       1.012228   -2.344783   -3.560393
H       3.378447   -3.117826   -3.356401
H       3.267317   -3.029083   -1.542599
H       1.363406   -4.677943   -1.562023
H       1.456240   -4.779928   -3.377133
