16

N       0.035143    1.375495    0.194451
C       0.032898   -0.013217    0.070640
N      -1.140715   -0.642469    0.133153
C      -1.131647   -1.976469    0.051045
C       0.020553   -2.731090   -0.107304
C       1.243780   -2.058109   -0.158374
O       2.447497   -2.688806   -0.293553
C       1.270877   -0.670580   -0.058701
N       2.464881    0.074263   -0.125610
H       0.707993    1.833539   -0.408364
H      -0.896336    1.756143    0.092580
H      -2.100553   -2.466087    0.103038
H      -0.023643   -3.813107   -0.183249
H       2.303829   -3.639801   -0.324745
H       3.280061   -0.524504   -0.085093
H       2.513450    0.771567    0.610162
