15

O       0.004037    1.427773    0.008299
C      -0.005536    0.010935    0.001849
C      -1.415079   -0.468526    0.011829
C      -2.553221    0.228093    0.023624
C      -3.736937   -0.704552    0.030356
N      -3.101853   -2.002546    0.020444
C      -1.728733   -1.931766    0.009361
O      -0.946178   -2.861927    0.000296
H       0.920126    1.718514    0.002083
H       0.503629   -0.401236   -0.884443
H       0.518877   -0.409491    0.875256
H      -2.650046    1.304531    0.028174
H      -4.365592   -0.555605    0.920507
H      -4.380554   -0.549437   -0.847964
H      -3.590755   -2.881092    0.022420
