18

C      -0.108552    1.504211   -0.028942
C      -0.109994   -0.009957   -0.210734
N      -1.359737   -0.580613    0.275960
C      -1.610692   -1.929547    0.114681
N      -2.816993   -2.460145    0.022117
C      -2.602237   -3.814145   -0.045537
O      -3.643520   -4.671001   -0.150731
C      -1.275678   -4.126342   -0.004928
N      -0.639588   -2.876468    0.088541
H       0.841744    1.929632   -0.361957
H      -0.906689    1.969920   -0.617741
H      -0.260653    1.768422    1.021358
H       0.076689   -0.264768   -1.267253
H       0.718243   -0.437942    0.370048
H      -2.181431   -0.041131    0.038978
H      -4.437137   -4.123004   -0.145463
H      -0.731627   -5.051194   -0.056159
H       0.347077   -2.726332    0.199076
