17

N      -0.354039    1.416843    0.337417
C      -0.085270    0.056233    0.094550
C      -0.992844   -0.927646   -0.241349
N      -0.312766   -2.127848   -0.279896
C       1.009013   -1.927260    0.016847
C       1.983348   -3.066514    0.013410
C       2.029329   -3.647706   -1.390281
O       1.468837   -4.663456   -1.718536
C       1.181558   -0.577800    0.250257
H       0.407610    2.014795    0.042300
H      -1.203563    1.729823   -0.115150
H      -2.051333   -0.875526   -0.437601
H      -0.709808   -3.014433   -0.539533
H       2.971678   -2.688826    0.292566
H       1.694618   -3.861898    0.709625
H       2.574795   -3.021155   -2.130686
H       2.109226   -0.099571    0.528063
