19

C       0.057031    1.559868    0.439635
C      -0.000728    0.084894    0.096916
C      -1.370143   -0.410292   -0.370010
C      -1.830244    0.200796   -1.611044
C      -2.212514    0.705186   -2.640713
C      -2.638590    1.324631   -3.867503
O      -3.640162    1.027063   -4.478160
C       1.214551   -0.566899   -0.513448
C       0.823682   -0.879893    0.913079
H       1.062677    1.848759    0.758605
H      -0.212407    2.176452   -0.424509
H      -0.634942    1.804937    1.254327
H      -1.347310   -1.499200   -0.504669
H      -2.120710   -0.220880    0.410741
H      -1.960075    2.124348   -4.229613
H       1.064736   -1.335876   -1.264040
H       2.091703    0.048555   -0.681276
H       1.433568   -0.473880    1.712970
H       0.412480   -1.861251    1.126288
