21

C       0.257722    1.383078    0.368370
C       0.048447   -0.086791    0.176199
C       0.339302   -0.808598   -0.913783
C      -0.032246   -2.262045   -0.789762
C       1.151956   -3.243122   -0.535383
C       0.924638   -3.098695    0.997476
O       1.902836   -2.359683    1.697495
C      -0.442063   -2.370100    0.716485
C      -0.587219   -0.941787    1.260408
H       0.892620    1.585370    1.240292
H       0.720527    1.847054   -0.506887
H      -0.696117    1.891888    0.559124
H       0.787388   -0.398190   -1.814555
H      -0.748616   -2.579750   -1.554730
H       0.955795   -4.255878   -0.899140
H       2.139283   -2.932358   -0.891062
H       0.829815   -4.039703    1.545023
H       2.086208   -1.563311    1.186082
H      -1.299497   -3.010868    0.929979
H      -0.078873   -0.823589    2.225259
H      -1.636013   -0.655604    1.419550
