16

C      -0.077306    1.455534   -0.035398
C      -0.000070    0.003678   -0.020232
C       0.082865   -1.200882   -0.011269
C       0.103520   -2.612351    0.013505
C       1.135591   -3.445362   -0.162087
C       0.675238   -4.866869   -0.047417
O      -0.723810   -4.792132    0.212078
C      -1.145704   -3.436226    0.263174
H       0.570275    1.895653    0.731411
H       0.236710    1.859749   -1.004461
H      -1.099317    1.801409    0.153811
H       2.160373   -3.160564   -0.358989
H       0.855565   -5.442474   -0.970105
H       1.180186   -5.407244    0.770023
H      -1.591279   -3.212251    1.244145
H      -1.916363   -3.247675   -0.499419
