16

N      -0.054017   -1.145794   -0.065743
C      -0.046168    0.006853   -0.000006
C      -0.002578    1.476566    0.031740
O      -0.719509    1.909384    1.181277
C      -0.578904    3.301951    1.353381
O       0.707661    3.653519    1.778315
C       1.718974    3.184366    0.926286
C       2.315329    1.838129    1.233228
C       1.425966    2.005474    0.024422
H      -0.515927    1.842745   -0.873215
H      -0.834694    3.816090    0.409828
H      -1.266294    3.593596    2.148038
H       2.358382    3.981757    0.558586
H       3.374135    1.678322    1.066597
H       1.895902    1.326073    2.091986
H       1.894235    1.993782   -0.953874
