15

O      -0.127904    0.058739   -0.038880
C      -0.021042    1.254869   -0.019364
C       1.349539    1.975297   -0.024497
N       2.503632    1.091285    0.027085
C       2.650531    0.385436    1.301237
C       3.899724   -0.380702    1.319420
N       4.871546   -1.004164    1.335956
C       1.372521    2.826624   -1.213512
C       1.323091    3.486226   -2.216278
H      -0.901481    1.932235   -0.014600
H       1.368903    2.620080    0.868701
H       2.447192    0.419812   -0.732422
H       2.697012    1.129096    2.106837
H       1.824006   -0.300755    1.536430
H       1.309193    4.084574   -3.094331
