16

O      -0.686583    0.884941    0.841012
C       0.028797    1.027948   -0.114827
C       1.303832    1.845183   -0.125308
C       1.284305    2.913508   -1.229561
C       2.621994    3.681005   -1.309428
C       2.626119    4.698236   -2.346819
C       2.605970    5.536788   -3.216453
C       2.588082    6.485007   -4.198440
N       2.572238    7.291236   -5.034715
H      -0.215058    0.549196   -1.092401
H       1.441061    2.288072    0.865578
H       2.137721    1.151123   -0.307748
H       1.080874    2.448187   -2.200528
H       0.473342    3.625893   -1.045758
H       2.836345    4.154103   -0.342450
H       3.443739    2.976776   -1.495158
