19

C      -0.211594    1.552476   -0.044735
C       0.048157    0.049708   -0.017509
C       0.816973   -0.504421   -1.237774
O       2.023151    0.261783   -1.472484
C       2.710932   -0.523124   -0.468693
C       2.409904    0.027622    0.935940
C       0.965288   -0.500913    1.110736
O       1.111749   -1.878988    0.716000
C       1.635816   -1.653513   -0.571313
H       0.702456    2.107313   -0.267616
H      -0.946349    1.803942   -0.816649
H      -0.608292    1.902599    0.914184
H      -0.901000   -0.493926    0.062716
H       0.232495   -0.649448   -2.148152
H       3.761102   -0.688252   -0.713279
H       3.060167   -0.424457    1.690730
H       2.510116    1.113757    0.976352
H       0.554219   -0.452295    2.119000
H       1.842861   -2.580569   -1.098903
