15

C      -0.195076    1.462530   -0.192483
N      -0.113086    0.025021   -0.022463
N      -0.115751   -0.818281   -1.045570
N      -0.042116   -2.018537   -0.527060
C       0.002831   -1.851368    0.818014
C       0.126773   -2.977485    1.787102
C       1.508682   -3.629609    1.744132
O       2.100844   -4.002464    2.719853
N      -0.037187   -0.566612    1.163118
H       0.684775    1.935827    0.247698
H      -0.235523    1.660133   -1.262717
H      -1.094567    1.841558    0.296856
H      -0.081713   -2.647877    2.805740
H      -0.594787   -3.759656    1.516090
H       1.922850   -3.751893    0.719910
