15

C      -0.001452    1.414240    0.066212
C       1.456016    1.926084    0.003268
O       2.239741    1.442936    1.115399
C       1.954523    0.146467    1.295533
C       0.937230   -0.597169    0.800130
N      -0.119329   -0.048239    0.053830
N       1.076784   -1.898001    1.260267
C       2.142887   -1.859501    1.991009
O       2.741306   -0.629300    2.077887
H      -0.455688    1.790616    0.990713
H      -0.562226    1.832970   -0.773502
H       1.934332    1.597543   -0.928371
H       1.494695    3.015293    0.064144
H      -0.181368   -0.430830   -0.883336
H       2.615952   -2.656754    2.539573
