19

O       0.136397    0.506885    0.892631
C      -0.207278    0.153747   -0.441540
C      -1.524169   -0.573619   -0.409624
C      -1.807724   -1.666616   -1.391093
C      -1.542486   -2.017852    0.055097
C      -0.416637   -2.838835    0.710566
C      -1.455087   -3.400605    1.738360
C      -2.546307   -2.579698    1.019410
O      -3.729792   -2.442477    1.160998
H       0.916601    1.068939    0.863237
H      -0.295659    1.047747   -1.078498
H       0.561502   -0.494525   -0.891827
H      -2.369978    0.021238   -0.075871
H      -2.825410   -1.791329   -1.745587
H      -1.035185   -1.927336   -2.108384
H       0.028506   -3.601079    0.067038
H       0.373049   -2.231950    1.156160
H      -1.621888   -4.480958    1.710749
H      -1.296851   -3.100063    2.777669
