19

C      -0.213704    1.571358   -0.017682
C       0.037506    0.071309    0.019995
C       1.195638   -0.555092   -0.845777
C       1.623732   -1.450903    0.357473
O       2.822949   -1.028347    1.054368
C       2.050256   -0.120771    1.862269
C       1.420062   -0.711246    3.147037
O       0.144222   -0.929524    2.472197
C       0.713036   -0.552349    1.231765
H       0.709223    2.129996    0.173593
H      -0.595431    1.883931   -0.995164
H      -0.949521    1.865739    0.738055
H      -0.892957   -0.473172   -0.182514
H       0.872766   -1.090336   -1.740232
H       1.976037    0.160125   -1.115924
H       1.551461   -2.533696    0.244086
H       2.470530    0.885753    1.910191
H       1.881600   -1.645566    3.482270
H       1.303170   -0.019806    3.988332
