21

C       0.233526    1.479559   -0.355359
C      -0.032972    0.052718    0.074844
C       1.081067   -0.966717    0.139781
C       0.405426   -0.509837    1.408693
C       1.157180    0.320162    2.441812
C       1.908454   -0.498995    3.389570
C       2.509858   -1.189877    4.170618
C       3.262345   -2.021548    5.100017
O       2.529003   -2.176956    6.310877
H       1.223934    1.825545   -0.045561
H       0.188822    1.566704   -1.446524
H      -0.506727    2.171399    0.062493
H      -0.989308   -0.329359   -0.274421
H       0.901965   -1.974594   -0.218203
H       2.090575   -0.607732   -0.040082
H      -0.278011   -1.222215    1.862063
H       1.844194    1.014878    1.944292
H       0.448665    0.948355    2.999170
H       3.461666   -2.998739    4.629844
H       4.243673   -1.555554    5.288827
H       3.057631   -2.730097    6.895141
