19

O       0.397942    0.703794    0.987806
C      -0.020938   -0.286851    0.083407
C      -1.567896   -0.378580    0.036789
C      -2.137011    0.199148   -1.269897
C      -1.576534   -0.564849   -2.463628
C      -0.757163    0.155026   -3.506031
C      -0.069307   -0.689668   -2.460852
C       0.599264   -0.016985   -1.296050
O       1.559231    0.718522   -1.383885
H       1.176852    1.110125    0.575426
H       0.379608   -1.275041    0.383655
H      -1.878124   -1.424663    0.132580
H      -1.950491    0.154988    0.910974
H      -3.230616    0.165764   -1.268092
H      -1.859420    1.258918   -1.339268
H      -2.148203   -1.429810   -2.786087
H      -0.760990   -0.224607   -4.521547
H      -0.664499    1.233708   -3.432751
H       0.398195   -1.615887   -2.782027
