13

N       0.112715    0.244660   -1.553347
C      -0.002714    0.745144   -0.518507
C      -0.123398    1.394717    0.804949
N       1.027744    2.169911    1.213879
C       1.384918    3.277512    0.460860
C       0.740764    3.992496   -0.502301
O       1.532784    5.025142   -0.839321
N       2.694820    4.920462   -0.068642
N       2.589696    3.905351    0.678339
H      -1.008239    2.042024    0.792409
H      -0.311444    0.623175    1.556578
H       1.828297    1.622044    1.498937
H      -0.195637    3.899281   -1.022841
