23

C      -0.426376    1.294771   -0.353351
C       0.866894    0.637359    0.141440
C       1.516055   -0.206130   -0.943523
O       2.798672   -0.798623   -0.581376
C       2.406232   -2.050968   -1.175937
C       3.415039   -2.733632   -2.041592
C       1.302353   -2.675280   -0.379661
C       1.200226   -2.618630    1.130113
C       0.978160   -1.567292   -1.380976
H      -0.241215    1.935746   -1.222639
H      -1.166100    0.542169   -0.647024
H      -0.875668    1.915409    0.427078
H       1.586957    1.408085    0.444573
H       0.662528    0.030191    1.026324
H       1.671310    0.423317   -1.833400
H       4.284054   -3.041478   -1.448421
H       2.985236   -3.629428   -2.499246
H       3.768712   -2.068613   -2.836023
H       1.005005   -3.633398   -0.805207
H       1.793407   -1.792852    1.526845
H       0.164871   -2.501131    1.467702
H       1.587174   -3.545508    1.567649
H       0.306278   -1.729024   -2.214446
