20

C      -0.835444    0.936933    0.424468
N       0.002220   -0.240334    0.204915
C       1.222140   -0.087419   -0.545390
C       1.285593   -0.389729    0.925124
C       1.812146    0.672033    1.844267
O       1.785025    1.857528    1.556163
C       2.368877    0.202248    3.144500
C       3.538391    0.988546    3.724302
C       2.194715    1.122226    4.347707
H      -0.277070    1.871015    0.549708
H      -1.503744    1.028464   -0.437426
H      -1.451584    0.770458    1.313650
H       1.456328   -0.877365   -1.254930
H       1.531994    0.917429   -0.827146
H       1.472770   -1.411964    1.243728
H       2.345892   -0.865350    3.327993
H       4.305273    0.421174    4.238760
H       3.890051    1.812823    3.114560
H       1.644071    2.035822    4.156043
H       2.006945    0.648839    5.304360
