21

C       0.728741    1.547143    0.154005
C      -0.020812    0.226962    0.006688
C       0.637459   -0.788387   -0.992684
O       1.529482   -0.321432   -1.975713
C       1.188042   -1.565886    0.212182
C       1.697774   -2.968547    0.293543
C       2.651146   -1.812185    0.476637
C       0.245807   -0.805985    1.157745
O       0.732655   -0.357237    2.399399
H       1.800342    1.405152    0.348019
H       0.642533    2.144585   -0.758071
H       0.324793    2.130318    0.986461
H      -1.078338    0.429587   -0.184258
H      -0.117143   -1.360354   -1.540748
H       2.233257    0.162684   -1.531328
H       1.437510   -3.553546    1.170269
H       1.764987   -3.538843   -0.627791
H       3.355593   -1.606171   -0.323495
H       3.027701   -1.620896    1.476893
H      -0.651908   -1.384382    1.395463
H       1.546494    0.131846    2.239378
