15

C      -0.776559    0.068278   -0.880737
C      -0.122382    0.572592   -0.006888
C       0.719693    1.139100    1.047725
N       1.708273    2.164444    0.668460
C       1.961731    2.453516   -0.731667
C       1.249874    3.458320    0.125012
C      -0.142180    3.754348   -0.067346
C      -1.303266    4.051958   -0.169023
H      -1.376202   -0.363194   -1.643714
H       0.088107    1.566381    1.834509
H       1.288427    0.323151    1.509901
H       3.002228    2.621340   -0.996883
H       1.361295    1.939844   -1.477502
H       1.828970    4.295636    0.509674
H      -2.330387    4.296379   -0.281956
