21

C       0.007665    1.372626   -0.062526
O       0.022446   -0.043798   -0.029148
C      -1.242561   -0.623982   -0.046570
O      -1.853039   -0.321061   -1.286701
C      -3.028978   -1.075857   -1.520407
C      -2.692211   -2.559620   -1.667708
C      -1.764571   -2.982151   -0.560393
C      -1.093117   -2.114078    0.197098
C      -0.197816   -2.512646    1.335320
H       1.042797    1.701451    0.052221
H      -0.392950    1.750006   -1.009200
H      -0.592681    1.782007    0.764334
H      -1.861241   -0.177069    0.764394
H      -3.744145   -0.935739   -0.692589
H      -3.481478   -0.667524   -2.428215
H      -3.613630   -3.155502   -1.645632
H      -2.227213   -2.745977   -2.645674
H      -1.650445   -4.048964   -0.379138
H      -0.195996   -3.597261    1.472583
H       0.828178   -2.174172    1.161982
H      -0.523811   -2.050443    2.276253
