17

C      -0.060518    1.396400   -0.134457
N      -0.017767   -0.002428    0.237129
C      -1.182420   -0.868310    0.127678
C      -1.200297   -1.550185   -1.270720
N      -0.416089   -2.717929   -0.748134
C      -0.692314   -2.244989    0.643569
C       0.694631   -2.197623    0.144768
C       1.130374   -0.755599    0.059327
O       2.252105   -0.327422   -0.107668
H       0.962731    1.774587   -0.103781
H      -0.459376    1.544480   -1.147935
H      -0.679657    1.961965    0.569040
H      -2.088119   -0.409269    0.521220
H      -2.186525   -1.921298   -1.559027
H      -0.743243   -1.002789   -2.101964
H      -1.087082   -2.869660    1.435607
H       1.432885   -2.953994    0.373953
