20

C      -0.007652    1.531136    0.064978
O       1.181630    0.743217   -0.009339
C      -0.079809    0.065048    0.032154
C      -0.352922   -0.740522    1.257022
N      -1.557367   -1.599199    1.195489
C      -0.242438   -2.220467    1.274415
C       0.372936   -3.147612    0.219016
C       1.259655   -3.749307    1.350194
C       0.349411   -3.061339    2.412098
H      -0.163152    2.054731    1.007943
H      -0.248207    2.105622   -0.828551
H      -0.372889   -0.414099   -0.901743
H      -0.132093   -0.225620    2.191497
H      -2.023348   -1.623469    2.099567
H      -0.360808   -3.860070   -0.169252
H       0.888813   -2.678812   -0.622050
H       1.325914   -4.837629    1.395810
H       2.270503   -3.335983    1.346114
H       0.839734   -2.527627    3.230725
H      -0.386939   -3.753619    2.834908
