17

N      -0.039573    1.281704   -0.014439
C      -0.015056   -0.064907   -0.225859
O       0.893978   -0.620932   -0.811261
C      -1.206630   -0.828278    0.362156
C      -1.175843   -2.274544   -0.061257
C      -2.416277   -3.111465   -0.201260
N      -1.729795   -2.593223   -1.363495
C      -1.092331   -3.391070   -2.304451
O      -1.537738   -4.420257   -2.748205
H       0.690593    1.840319   -0.425386
H      -0.838254    1.748408    0.378157
H      -1.169901   -0.750370    1.456465
H      -2.143729   -0.361559    0.038167
H      -0.266069   -2.804272    0.211004
H      -2.339550   -4.179731   -0.016417
H      -3.388780   -2.674676    0.010458
H      -0.146695   -2.929821   -2.642842
