17

O      -0.012882    1.430123   -0.116368
C       0.010791    0.014237   -0.003671
C       0.536914   -0.528925    1.387689
N      -0.484128   -1.409681    1.987933
C      -1.487300   -1.370584    1.191475
N      -2.726368   -1.956973    1.194449
C      -3.537650   -1.392795    0.112418
C      -2.548938   -0.523802   -0.647699
C      -1.381498   -0.539456   -0.005425
H       0.898749    1.738846   -0.095955
H       0.601031   -0.421071   -0.824760
H       1.482575   -1.073698    1.277756
H       0.729675    0.329281    2.045581
H      -3.145958   -2.305518    2.039819
H      -3.968413   -2.180051   -0.523226
H      -4.379874   -0.796019    0.496050
H      -2.821335    0.005750   -1.550901
