25

C      -0.751865    1.040425   -0.225896
C       0.263605   -0.074961   -0.028029
C       1.632375    0.032006   -0.761032
C       2.363154   -0.396406    0.551338
C       1.029270   -0.147131    1.325087
C       2.919395   -1.810009    0.590788
C       1.978852   -2.943665    0.221393
C       4.372905   -1.974814    0.207578
C       3.954365   -2.099059    1.654720
H      -0.306055    2.019251   -0.013015
H      -1.125500    1.062718   -1.256116
H      -1.615334    0.917364    0.437974
H      -0.207664   -1.039032   -0.247026
H       1.781260   -0.597813   -1.642411
H       1.866728    1.064625   -1.039023
H       3.168074    0.285271    0.842601
H       1.033404    0.817042    1.843590
H       0.716894   -0.914076    2.039136
H       1.603764   -2.842651   -0.802963
H       2.491861   -3.908067    0.286869
H       1.113672   -2.988294    0.891976
H       4.665948   -2.877432   -0.318643
H       4.930532   -1.091934   -0.087496
H       4.229949   -1.299927    2.335116
H       3.964507   -3.085639    2.106446
