16

C      -0.011207    1.448374    0.048483
N       0.039322    0.001476    0.024692
C      -0.056366   -0.808742   -1.106267
C      -0.115444   -2.144775   -0.732850
C      -0.088654   -2.127936    0.679150
C      -0.012857   -0.839015    1.089487
O       0.273709   -0.716025    2.423979
C      -0.027975   -2.064888    2.867802
O       0.131178   -2.963461    1.768127
H       0.585136    1.823557    0.883499
H       0.411412    1.834640   -0.881269
H      -1.036668    1.820988    0.154852
H      -0.174593   -0.353811   -2.076526
H      -0.176146   -2.986301   -1.403431
H       0.661154   -2.335616    3.668815
H      -1.076878   -2.082006    3.205088
