16

N      -0.053625   -1.196459   -0.075312
C      -0.027349   -0.041298   -0.028668
C      -0.018487    1.410873    0.006996
C       0.038567    2.121783    1.407586
C       1.529022    1.657576    1.510599
C       1.369724    2.147401    0.033353
C       0.582938    3.328303    0.625314
C       0.060812    4.596832    0.143211
O       1.104728    4.509521    1.152774
H      -0.753242    1.809572   -0.697293
H      -0.733239    2.095918    2.174641
H       2.175776    2.260141    2.148313
H       1.693171    0.588269    1.649668
H       2.112030    2.150673   -0.762698
H       0.386246    4.997670   -0.815008
H      -0.893802    4.973022    0.506468
