19

C       0.000780    1.593377    0.115971
C      -0.008045    0.094757    0.029366
C      -1.277045   -0.761758   -0.099571
C      -0.666713   -1.809509    0.903357
C      -0.556610   -3.205966    0.506528
C      -0.443157   -4.359966    0.181305
C       0.626851   -0.975916    0.955979
C       1.162902   -0.726331   -0.423637
O       1.069405   -1.630967   -1.484953
H       1.003147    1.971970    0.341365
H      -0.315989    2.042275   -0.833371
H      -0.677401    1.957096    0.896667
H      -2.170902   -0.284961    0.307164
H      -1.482360   -1.135861   -1.104215
H      -1.194315   -1.750202    1.859608
H      -0.360855   -5.381222   -0.098472
H       1.242173   -0.868485    1.842605
H       2.104177   -0.175749   -0.421350
H       1.043198   -2.526114   -1.127885
