24

C      -0.417089    1.379286    0.138328
C       0.144140   -0.020121   -0.151750
C       1.055857   -0.005108   -1.387404
C       0.882047   -0.567716    1.058127
C       0.126130   -1.162021    2.225415
C       0.967537   -2.048408    1.343789
N       0.277398   -2.963583    0.475515
C       1.104868   -3.892820   -0.287977
C       0.295343   -4.369216    0.867984
H       0.390003    2.090419    0.353644
H      -0.976835    1.765338   -0.720389
H      -1.087883    1.367241    1.003097
H      -0.693523   -0.695641   -0.358700
H       1.926081    0.643193   -1.225890
H       1.424071   -1.008963   -1.618867
H       0.522880    0.371802   -2.266937
H       1.777019   -0.003921    1.317501
H       0.459646   -0.961229    3.237578
H      -0.948433   -1.262859    2.112298
H       1.909106   -2.413233    1.766022
H       0.783375   -4.088340   -1.307112
H       2.184094   -3.842268   -0.152192
H       0.833484   -4.636080    1.775997
H      -0.628677   -4.917739    0.708108
