21

C      -0.097450    1.653989   -0.162080
C       0.012438    0.142719   -0.004413
C       1.009989   -0.646268   -0.992509
C       1.871949   -0.831634    0.259843
O       2.530161   -1.788891    1.206314
C       2.093314   -0.558388    1.997780
C       2.707695    0.326616    0.913078
C       4.212864    0.354887    0.722082
C       0.733923   -0.616037    1.212865
H       0.867402    2.156215   -0.260511
H      -0.675195    1.890803   -1.062751
H      -0.621589    2.094151    0.692376
H      -0.996291   -0.271709   -0.071081
H       0.551727   -1.567293   -1.359638
H       1.448497   -0.092958   -1.828380
H       2.301033   -0.620936    3.070135
H       2.267927    1.321364    0.839736
H       4.628378   -0.650803    0.801263
H       4.473633    0.768218   -0.258433
H       4.685817    0.990164    1.479392
H       0.186580   -1.530418    1.445889
