19

C       0.057537   -1.190328    0.038522
C       0.005307    0.004383    0.162060
C      -0.020612    1.456776    0.301400
C       1.370462    2.079909    0.103521
C       1.978039    2.127661   -1.351675
C       1.091060    3.399335   -1.583767
C       1.464231    3.645280   -0.080823
C       2.986931    3.789406   -0.206791
C       3.322208    2.797561   -1.038424
H       0.090365   -2.246217   -0.066643
H      -0.753279    1.873701   -0.397649
H      -0.379497    1.718385    1.306128
H       2.050419    1.671936    0.855725
H       1.957528    1.263856   -2.014948
H       1.456355    4.130707   -2.307589
H       0.033498    3.188706   -1.761991
H       0.919342    4.342786    0.556194
H       3.603793    4.525976    0.287976
H       4.290585    2.497220   -1.412378
