16

O      -0.205930    1.335967    0.239673
N      -0.006992   -0.054568    0.273958
C      -1.077792   -0.664942   -0.022824
C      -2.444062   -0.095109   -0.329331
O      -3.281743   -1.219155   -0.554838
C      -2.721703   -2.324937    0.135665
C      -1.186519   -2.184924   -0.041506
C      -0.715633   -2.751203   -1.301368
C      -0.338695   -3.223760   -2.339736
H       0.661550    1.675065    0.485449
H      -2.792073    0.514453    0.519723
H      -2.446817    0.540001   -1.220352
H      -2.969651   -2.290427    1.208643
H      -3.125666   -3.239623   -0.299737
H      -0.636701   -2.623629    0.796165
H       0.001363   -3.637142   -3.256858
