17

N      -0.134038    1.413610   -0.046783
C      -0.033723   -0.020756    0.002039
C      -0.504928   -0.739320   -1.260913
C      -1.331418   -0.801924   -0.016818
O      -1.354694   -2.041658    0.647901
C      -0.481422   -2.069919    1.727322
O       0.875072   -1.850287    1.333031
C       1.111418   -0.629826    0.754298
N       2.232506   -0.048420    0.822534
H      -0.160778    1.785634    0.899790
H       0.725447    1.777473   -0.452434
H      -0.830739   -0.090556   -2.064358
H       0.002111   -1.652489   -1.548443
H      -2.260995   -0.244641    0.044906
H      -0.752816   -1.317446    2.484061
H      -0.513209   -3.072808    2.154186
H       2.884476   -0.600560    1.382706
