16

O      -0.664263    0.952450   -0.494276
C       0.228590    1.132418    0.290939
C       1.434954    2.033137    0.013960
C       1.338441    2.818401   -1.295463
C       1.479429    1.925954   -2.545146
C       1.475543    2.708692   -3.778670
N       1.474756    3.345214   -4.742913
C       1.646425    2.929336    1.237981
O       1.766116    2.500108    2.354253
H       0.241640    0.660882    1.293451
H       2.304332    1.356062    0.010559
H       0.376137    3.338074   -1.339139
H       2.118830    3.586830   -1.312471
H       2.414498    1.354199   -2.503344
H       0.656840    1.206477   -2.578164
H       1.668319    4.020721    1.024313
