21

C      -0.032152    1.489297   -0.000685
C       0.004057   -0.028638    0.005658
C       0.803544   -0.662849   -1.148410
O       1.018270   -2.022531   -0.734107
C       0.479486   -2.130179    0.591700
C       0.698833   -0.741181    1.193027
C      -1.052405   -2.195448    0.450856
O      -1.601585   -2.540645    1.714649
C      -1.381590   -0.732286    0.010194
H       0.978700    1.910988    0.021973
H      -0.531940    1.873432   -0.897475
H      -0.575500    1.873013    0.869228
H       0.257902   -0.647793   -2.100599
H       1.772027   -0.164702   -1.298294
H       0.925190   -2.992087    1.087472
H       1.755311   -0.481166    1.301226
H       0.179546   -0.606451    2.144505
H      -1.326403   -2.933105   -0.313720
H      -2.560686   -2.518702    1.641219
H      -2.042569   -0.272623    0.752745
H      -1.874693   -0.677085   -0.965500
