25

C      -0.091202    1.577239   -0.018847
C       0.042617    0.055717   -0.032007
C       0.907129   -0.511847   -1.172718
C       1.196934   -1.942038   -0.703068
C       1.504790   -1.790883    0.805064
C       1.389649   -3.115884    1.616352
C       2.923715   -3.308907    1.485981
C       3.037138   -1.807618    1.115284
C       0.696304   -0.540749    1.241707
H       0.891643    2.054715    0.073727
H      -0.556162    1.946978   -0.939392
H      -0.705102    1.917520    0.822249
H      -0.961709   -0.377965   -0.136932
H       0.415811   -0.463555   -2.149738
H       1.842936    0.059274   -1.249618
H       0.296367   -2.556600   -0.835478
H       2.004684   -2.432391   -1.255745
H       1.091009   -2.930245    2.653175
H       0.740932   -3.894341    1.202808
H       3.466287   -3.650459    2.370521
H       3.185646   -3.962347    0.649374
H       3.715482   -1.528542    0.302656
H       3.275366   -1.193265    1.989604
H       1.368526    0.196139    1.698642
H      -0.053080   -0.787856    2.001385
