25

C      -0.261369    1.399017   -0.156868
C       0.086956   -0.070459    0.029427
C       1.188833   -0.713235   -0.852866
C       1.633770   -1.557136    0.370385
C       0.865230   -0.568220    1.305620
C       1.820726    0.481977    1.884951
C       0.010570   -1.133486    2.424204
C      -0.743674   -2.433433    2.318719
C       0.449432   -2.326144    3.237929
H       0.625437    2.038558   -0.100041
H      -0.723531    1.565050   -1.136745
H      -0.971928    1.744741    0.602846
H      -0.827295   -0.669867   -0.052331
H       0.865998   -1.253585   -1.746286
H       1.950209    0.014435   -1.151298
H       1.193804   -2.557670    0.352217
H       2.707684   -1.658317    0.549742
H       2.473703    0.912486    1.118977
H       1.273625    1.305559    2.357057
H       2.459755    0.026164    2.649004
H      -0.503271   -0.358012    2.990189
H      -1.732401   -2.485610    2.761660
H      -0.636706   -3.029774    1.418828
H       1.358140   -2.835040    2.932607
H       0.283846   -2.320716    4.309689
