23

C      -0.136742    1.557208    0.215690
C      -0.081371    0.040725    0.014681
C      -1.456248   -0.629864    0.083248
O      -2.335700   -0.093926   -0.927724
C      -1.384507   -2.155356   -0.021998
C      -0.930173   -2.855045    1.295759
C      -2.419470   -3.119634    1.643117
C      -2.760393   -2.881408    0.147562
O      -3.953836   -2.221321   -0.174461
H       0.854385    2.006894    0.105834
H      -0.807907    2.020019   -0.512501
H      -0.508433    1.807597    1.215355
H       0.369684   -0.194717   -0.960563
H       0.571453   -0.417002    0.767219
H      -1.945693   -0.347846    1.023641
H      -1.974397   -0.339876   -1.787868
H      -0.822855   -2.418475   -0.927569
H      -0.374712   -3.774646    1.097414
H      -0.352035   -2.251929    2.000321
H      -2.683391   -4.086709    2.076265
H      -2.844652   -2.326918    2.264637
H      -2.726857   -3.840303   -0.389203
H      -3.715534   -1.346355   -0.514660
