15

N      -0.151432    1.452527    0.163391
C      -0.006437    0.076058   -0.013962
C      -1.056184   -1.013094   -0.087355
C      -0.400718   -1.669889   -1.298327
C       0.904734   -0.993595   -0.814619
O       1.205391   -1.685470    0.427103
C       0.072136   -1.044279    0.993279
C      -0.166405   -1.069678    2.394985
N      -0.367349   -1.071413    3.534529
H       0.711057    1.917247    0.422738
H      -0.560683    1.918353   -0.638239
H      -2.097953   -0.952451    0.198914
H      -0.378880   -2.760736   -1.362901
H      -0.768529   -1.231720   -2.229593
H       1.778360   -0.839892   -1.443447
