12

C      -0.003819    1.548694    0.010345
C       0.004748    0.019374    0.002205
C      -1.424153   -0.561599    0.012717
C      -1.440765   -2.022619    0.004794
N      -1.433961   -3.178200   -0.001356
H       1.015838    1.943718    0.002683
H      -0.523364    1.948773   -0.867192
H      -0.506461    1.939437    0.901821
H       0.532105   -0.352886   -0.882359
H       0.548856   -0.362163    0.872560
H      -1.967843   -0.212685    0.898815
H      -1.984651   -0.203154   -0.858951
