21

C       0.178910    1.568120    0.064056
C      -0.037416    0.051494   -0.017341
C       0.570189   -0.547229   -1.260365
C      -0.023467   -0.260208   -2.667795
C       0.440435   -1.665296   -3.137004
C       1.973422   -1.734886   -3.372740
C       2.189028   -1.724336   -1.841907
O       2.019897   -0.400988   -1.289413
C       0.687124   -2.059039   -1.628072
H       1.246364    1.802555    0.030278
H      -0.305893    2.084783   -0.771021
H      -0.232632    1.974095    0.992709
H       0.410368   -0.435320    0.857427
H      -1.109281   -0.183044   -0.000818
H      -1.116595   -0.204802   -2.620339
H       0.361488    0.614057   -3.199978
H      -0.208079   -2.214209   -3.819093
H       2.257860   -2.706585   -3.790882
H       2.450724   -0.936371   -3.947928
H       3.048418   -2.241335   -1.409757
H       0.264874   -2.899028   -1.082118
