23

C       0.524353    1.552394    0.240681
C      -0.141823    0.222968   -0.134262
C       0.543992   -0.455426   -1.304105
C       1.741656   -1.354768   -1.095671
C       0.437836   -1.935248   -1.595254
C      -0.368652   -2.894362   -0.743065
C       0.111601   -4.351358   -0.898635
C      -0.623278   -5.288145    0.029838
O      -1.249942   -6.257712   -0.312051
H       1.571823    1.400660    0.521218
H       0.506238    2.253633   -0.600880
H       0.013657    2.029519    1.082883
H      -0.140177   -0.438501    0.739486
H      -1.197166    0.400125   -0.380505
H       0.589019    0.172751   -2.191816
H       2.585356   -1.285547   -1.773539
H       2.018963   -1.573155   -0.067562
H       0.418683   -2.188857   -2.653134
H      -0.305459   -2.608293    0.313185
H      -1.430210   -2.835670   -1.015948
H      -0.009889   -4.707988   -1.925710
H       1.180439   -4.397569   -0.644552
H      -0.552457   -5.006485    1.108416
