15

O      -0.248107    1.480961    0.290551
C      -0.001206    0.148573    0.095270
C      -0.943904   -0.972024   -0.039309
C      -0.444620   -1.290022   -1.510924
C       0.799459   -0.567414   -1.019668
C       1.861393   -1.245185   -0.528987
C       1.586473   -1.469023    0.940445
O       2.243579   -2.089426    1.740261
C       0.176279   -0.945531    1.118288
H       0.547540    1.892122    0.649005
H      -1.982210   -1.029834    0.275844
H      -0.320637   -2.325880   -1.835965
H      -1.097830   -0.739416   -2.194730
H       2.404712   -2.015452   -1.068135
H      -0.252118   -0.854411    2.112264
