18

N      -0.452016   -1.292895    0.280079
C      -0.276011   -0.158061    0.150004
C      -0.073875    1.297243    0.003533
C      -0.112251    2.061002    1.362054
C       1.402377    2.228381    1.148316
O       1.329803    1.603830   -0.158695
C      -0.924773    1.828324   -1.129560
C      -0.561369    3.128236   -1.795968
C      -0.382098    1.823940   -2.533647
H      -0.689772    2.983824    1.304800
H      -0.420451    1.478544    2.229191
H       1.778476    3.253790    1.081920
H       2.036077    1.650924    1.829825
H      -1.981010    1.607425   -1.004979
H      -1.369526    3.788475   -2.089192
H       0.341363    3.628166   -1.464566
H       0.635132    1.475462   -2.668916
H      -1.062035    1.577796   -3.340627
