18

N      -0.264748    1.350708   -0.078730
C       0.210455   -0.019985   -0.077163
C       0.867817   -0.479389    1.220646
O       1.030747    0.206804    2.198399
O       1.252458   -1.771798    1.140252
C       1.918444   -2.285473    2.294134
C       1.042218   -2.656761    3.502509
O       1.475101   -4.033382    3.427642
C       2.189931   -3.791687    2.198081
H      -0.928063    1.474255    0.681250
H       0.507923    1.970669    0.148287
H      -0.616887   -0.705205   -0.295901
H       0.934106   -0.166692   -0.887934
H       2.775465   -1.653991    2.530636
H       1.301419   -2.188064    4.456645
H      -0.033516   -2.546745    3.317592
H       1.708641   -4.262910    1.332047
H       3.236347   -4.109885    2.256502
