19

N       0.041040    1.370174    0.463854
C      -0.002035   -0.020074   -0.014829
C      -1.459323   -0.555869   -0.032229
C      -2.242610   -0.126162    1.251225
O      -1.451647   -0.117947    2.408910
C      -2.229671   -0.046423   -1.283447
O      -1.649288   -0.447263   -2.502931
C      -1.400806   -2.018329   -0.135490
N      -1.374977   -3.165622   -0.280945
H       1.008940    1.652975    0.580980
H      -0.351398    2.001237   -0.228672
H       0.422008   -0.165018   -1.016722
H       0.577131   -0.623420    0.687562
H      -2.677661    0.864608    1.051979
H      -3.069755   -0.820747    1.422218
H      -0.831033    0.615138    2.273242
H      -3.282221   -0.356908   -1.206647
H      -2.213262    1.048707   -1.281563
H      -1.717639   -1.407645   -2.566197
