19

C       0.281216    1.495431   -0.043445
C      -0.106513    0.031110    0.071895
O      -0.438702   -0.476659    1.116400
C      -0.090977   -0.744324   -1.236955
O      -0.119577   -2.177451   -1.103851
C      -1.305566   -2.246236   -1.902546
C      -2.437719   -1.533846   -1.233390
C      -1.415658   -0.744685   -2.038066
C      -1.737614    0.157184   -3.191396
H       1.361456    1.577017   -0.213694
H      -0.212270    1.971547   -0.898127
H       0.023092    2.019473    0.877368
H       0.758375   -0.433857   -1.861463
H      -1.386165   -3.056147   -2.618271
H      -3.402231   -1.625371   -1.724617
H      -2.463938   -1.481545   -0.149507
H      -2.014763    1.163416   -2.853791
H      -0.886983    0.254406   -3.875536
H      -2.583986   -0.234449   -3.764442
