21

C      -0.119088    1.554245   -0.404637
C      -0.101164    0.052363   -0.097012
C      -1.476828   -0.545164    0.189496
C      -2.209307    0.097103    1.355782
O      -2.317582   -0.457713   -1.037710
C      -2.377269   -1.817994   -1.161594
O      -2.891484   -2.448179   -2.031203
C      -1.592655   -2.100268    0.119163
C      -0.379115   -3.015542    0.017948
H       0.874864    1.889599   -0.713986
H      -0.818147    1.771307   -1.217311
H      -0.410628    2.150070    0.464906
H       0.335037   -0.476619   -0.950426
H       0.549006   -0.151540    0.763206
H      -2.367008    1.164994    1.187115
H      -3.187875   -0.369681    1.498465
H      -1.631565   -0.022763    2.278542
H      -2.270135   -2.472331    0.894919
H       0.308394   -2.710827   -0.774409
H       0.174407   -3.043126    0.961565
H      -0.710489   -4.033123   -0.207909
