17

C       0.004456    1.527762    0.217051
C      -0.003596    0.032234   -0.119303
C      -1.391420   -0.558919   -0.091137
C      -2.062420   -0.988289    1.202945
C      -1.771401   -2.013410    0.144020
O      -2.824615   -2.287085   -0.771617
C      -3.049024   -1.103854   -1.402061
N      -2.316141   -0.105132   -1.118243
H       1.018114    1.936082    0.164210
H      -0.626687    2.080161   -0.484183
H      -0.380348    1.705858    1.226648
H       0.427726   -0.127166   -1.114971
H       0.628463   -0.517047    0.589072
H      -1.431024   -1.032989    2.084335
H      -3.091086   -0.694098    1.382938
H      -1.112052   -2.858564    0.294212
H      -3.859421   -1.119568   -2.120533
