18

C      -0.304979    1.473434    0.023505
C       0.092591   -0.013350    0.070036
C       0.815335   -0.475712   -1.155111
C       2.155065   -0.686415   -1.425831
C       3.339674   -0.539610   -0.520714
O       3.173633   -1.208258    0.728624
N       2.280514   -1.104596   -2.719776
N       1.105808   -1.159658   -3.275191
N       0.217264   -0.780290   -2.333588
H       0.576594    2.110566   -0.091310
H      -0.977901    1.682698   -0.814245
H      -0.816059    1.761244    0.946767
H       0.750310   -0.199990    0.922984
H      -0.803935   -0.627150    0.224082
H       4.228504   -0.890223   -1.061977
H       3.509868    0.509698   -0.256692
H       3.029285   -2.140881    0.535555
H      -0.764633   -0.772841   -2.562185
