19

O      -0.049930    1.375887   -0.027050
C       0.027628   -0.011213    0.024203
C      -0.351340   -0.759372    1.279847
C      -1.260672   -0.800256    0.047796
O      -2.373316    0.056920    0.082403
C      -3.606716   -0.632967    0.266103
C      -3.877389   -1.578681   -0.905872
C      -2.648188   -2.401254   -1.192125
C      -1.451853   -2.041625   -0.724958
H      -0.991044    1.595808   -0.045535
H       0.847869   -0.399427   -0.573718
H       0.199376   -1.653477    1.552836
H      -0.713254   -0.158454    2.107112
H      -3.577684   -1.198876    1.208820
H      -4.374812    0.139714    0.351032
H      -4.728492   -2.226996   -0.661664
H      -4.172803   -1.003914   -1.794315
H      -2.759222   -3.305920   -1.782361
H      -0.569302   -2.651768   -0.894421
