15

O      -0.020624    0.021415   -0.206894
C      -0.058083    1.203444   -0.055801
C      -1.152670    2.248363   -0.066989
N      -0.907840    3.062315    1.176620
C      -0.109417    3.330611   -0.022414
C       1.047038    2.316732    0.011320
C       2.002217    2.372168    1.210173
C       2.962541    1.271149    1.224469
N       3.737100    0.414028    1.229464
H      -2.131783    2.223345   -0.527079
H      -1.665518    3.743790    1.218925
H      -0.125910    4.286732   -0.528495
H       1.600346    2.295373   -0.933381
H       2.564447    3.313741    1.192732
H       1.420181    2.361855    2.136396
