17

C      -0.336565    1.480717    0.067610
C      -0.105447   -0.033266    0.052240
C       0.900872   -0.455499   -0.999942
C       1.030543   -1.958351   -1.334689
C       0.635977   -1.527291   -2.770382
O       0.440537   -0.166028   -2.356461
C       1.687152   -1.665871   -3.786095
N       2.517444   -1.790052   -4.580288
H       0.586696    2.019849    0.305657
H      -0.684099    1.824885   -0.910474
H      -1.087314    1.756273    0.813458
H       0.261963   -0.375179    1.029157
H      -1.050795   -0.558131   -0.133842
H       1.866721    0.037329   -0.825764
H       2.020509   -2.399566   -1.227692
H       0.286590   -2.594417   -0.852771
H      -0.286670   -1.969139   -3.163774
