19

C      -0.260077    1.580115   -0.053102
C      -0.031071    0.082212    0.053077
C      -1.186993   -0.736145   -0.493115
O       1.227268   -0.279408   -0.672152
C       1.815403   -0.716857    0.473409
O       2.939814   -1.089904    0.634967
C       0.609479   -0.464039    1.363516
C       0.933783    0.406995    2.581462
O       1.788246   -0.299395    3.457069
H       0.621331    2.145324    0.256730
H      -0.490275    1.851673   -1.087567
H      -1.105436    1.881297    0.573779
H      -1.387451   -0.469478   -1.535028
H      -0.965047   -1.805716   -0.447586
H      -2.094068   -0.545471    0.089595
H       0.149338   -1.394325    1.707472
H       1.379303    1.362135    2.266089
H       0.024379    0.638668    3.145338
H       2.561778   -0.571942    2.945605
