18

C      -0.029950    1.560251   -0.030059
C      -0.091976    0.035676   -0.104052
C      -1.502227   -0.513723   -0.127882
O      -2.483796    0.196623   -0.213694
C      -1.701885   -2.027108   -0.060571
O      -3.074957   -2.325115    0.037175
C      -1.136566   -2.740703   -1.308512
O      -1.502053   -4.098699   -1.292008
H       1.008363    1.901822   -0.031654
H      -0.546647    2.012623   -0.879617
H      -0.513065    1.927309    0.879171
H       0.419495   -0.333081   -1.004706
H       0.441166   -0.431847    0.734355
H      -1.183025   -2.421301    0.826017
H      -3.527529   -1.476264   -0.104809
H      -1.514176   -2.228332   -2.209957
H      -0.042666   -2.696505   -1.322478
H      -2.446987   -4.106012   -1.089148
