15

C       0.068102    1.463205   -0.028378
C      -0.048048   -0.018641    0.063106
O       0.461610   -0.860010   -1.065374
C       0.027687   -1.883385   -0.087316
C       0.646955   -1.022882    1.054528
C       2.089254   -0.959245    1.132033
C       3.284224   -0.890658    1.240270
C      -1.250054   -1.008726    0.013009
O      -2.430740   -1.045143   -0.085934
H       1.119277    1.765099   -0.040993
H      -0.418201    1.825254   -0.938303
H      -0.420198    1.927944    0.833439
H       0.200562   -2.927642   -0.333859
H       0.176468   -1.122612    2.038674
H       4.341861   -0.839293    1.323236
