16

C      -0.027066    1.557927    0.040481
C      -0.033799    0.021740    0.054736
C       0.716327   -0.519997    1.188261
C       1.357013   -0.939991    2.112499
N      -1.409546   -0.490889    0.035538
N      -2.311152   -0.151503    0.947350
C      -3.396678   -0.835713    0.581039
C      -3.090649   -1.578346   -0.566913
N      -1.818158   -1.345531   -0.896125
H       1.004110    1.917666    0.021483
H      -0.550937    1.924900   -0.845872
H      -0.521756    1.943614    0.933279
H       0.396799   -0.359524   -0.875589
H       1.915736   -1.322177    2.930998
H      -4.314854   -0.760875    1.141375
H      -3.702681   -2.243954   -1.154017
