18

C      -0.104378    1.514511   -0.007026
C      -0.055811    0.015714   -0.007644
C      -0.878807   -0.873076    0.885809
C       0.625611   -0.962969    0.915208
N       1.317743   -1.703986   -0.212633
C       0.328620   -2.254524   -1.144455
C       0.577117   -0.787668   -1.187620
C       1.229047   -0.142405   -2.278106
C       1.745559    0.428861   -3.203312
H       0.839781    1.941534   -0.359018
H      -0.901308    1.886744   -0.661632
H      -0.297073    1.892952    1.001528
H      -1.277969   -0.350714    1.751117
H      -1.535824   -1.657637    0.528209
H       1.211617   -0.801681    1.810994
H       0.797320   -2.831208   -1.936514
H      -0.610892   -2.665401   -0.794124
H       2.212829    0.924617   -4.017773
