17

C       0.212304    1.524127   -0.061558
C      -0.010722    0.011167    0.024957
N       0.349872   -0.601634   -1.253510
C       0.998253   -1.683970   -1.286339
O       1.505200   -2.432046   -0.273252
C       1.403167   -1.901977    1.030059
C       2.173276   -0.653923    1.357163
C       0.660834   -0.618630    1.239505
H       1.275762    1.753218   -0.179827
H      -0.322005    1.931988   -0.923428
H      -0.145808    2.020891    0.846074
H      -1.091144   -0.157486    0.139113
H       1.234539   -2.161474   -2.235492
H       1.339805   -2.710508    1.748226
H       2.624999   -0.565984    2.338751
H       2.752407   -0.216852    0.550099
H       0.105670   -0.524085    2.168216
