16

C      -0.174194    1.400991    0.100071
N      -0.139575   -0.050673    0.128828
C       0.657711   -0.634075    0.899863
O       1.529733   -0.013299    1.775484
C       2.446228   -0.967036    2.314733
C       1.848103   -2.313305    1.950281
C       0.442127   -2.553930    2.336373
N       0.772944   -2.054862    0.974720
H       0.698395    1.880444    0.558979
H      -0.256949    1.731194   -0.940420
H      -1.073193    1.756890    0.618548
H       3.431527   -0.835232    1.851577
H       2.535891   -0.792635    3.391490
H       2.517518   -3.137999    1.730647
H       0.046293   -3.563588    2.350715
H      -0.030234   -1.857549    3.024409
