17

O       0.165827    0.211666    0.621364
C       0.083620    1.328124    0.173357
N       1.071176    1.961418   -0.565891
C       2.487390    1.846111   -0.272764
C       1.784813    3.160890   -0.181808
C       2.017416    4.437636   -0.994714
N       1.967337    5.272077    0.263512
C       0.615291    5.081995    0.806914
C       1.610089    4.012582    1.048729
H      -0.829209    1.948556    0.251994
H       2.756201    1.338475    0.650933
H       3.134176    1.639693   -1.121648
H       3.006542    4.495785   -1.453100
H       1.252423    4.701860   -1.731167
H       0.392990    5.746325    1.636168
H      -0.213478    4.913805    0.121638
H       2.027995    3.803218    2.027988
