20

C      -0.043521    1.570682   -0.053957
C       0.088805    0.066682    0.076118
C       1.332580   -0.738928   -0.173994
C       2.584322   -0.020633    0.342910
C       1.971667   -0.059926    1.792027
C       2.723470   -1.011920    2.718634
O       1.740455    1.181920    2.441822
C       0.696712   -0.690695    1.229074
H       0.809480    2.100277    0.369636
H      -0.150184    1.856394   -1.106945
H      -0.934481    1.920734    0.478528
H      -0.792100   -0.460888   -0.289279
H       1.347332   -1.570719   -0.868055
H       3.499846   -0.611396    0.257209
H       2.768956    0.977379   -0.064600
H       3.715312   -0.610868    2.963777
H       2.166965   -1.148135    3.651563
H       2.866461   -1.991064    2.252486
H       2.574925    1.479415    2.820662
H       0.139634   -1.461270    1.751779
