16

C      -0.001182    1.531365   -0.082413
C      -0.037747    0.011313    0.073822
N      -1.406868   -0.519474    0.021109
N      -1.955746   -0.788506    1.213411
N      -3.147875   -1.244028    1.285856
C      -3.851203   -1.455326    0.122658
C      -3.358813   -1.210318   -1.114832
C      -2.023073   -0.682515   -1.246412
O      -1.430749   -0.390711   -2.268978
H       1.034176    1.879714   -0.026114
H      -0.411679    1.826983   -1.050130
H      -0.571349    2.017482    0.714394
H       0.518125   -0.469031   -0.733805
H       0.367984   -0.301560    1.036703
H      -4.852057   -1.844357    0.277619
H      -3.926843   -1.386308   -2.019939
