17

C      -0.068578    1.515373   -0.000564
O       0.112205    0.095988    0.072639
C       0.640969   -0.508849   -1.056304
C       0.435808   -2.062328   -1.041320
N      -0.173630   -1.937134   -2.372123
C      -0.241583   -0.552981   -2.339585
N      -0.783014    0.368702   -3.013455
C       2.085403   -0.149181   -1.377200
O       2.757451    0.621203   -0.745706
H       0.893648    2.033366   -0.021628
H      -0.660059    1.788340   -0.879610
H      -0.610649    1.789063    0.906894
H       1.331855   -2.688903   -1.011401
H      -0.251785   -2.336894   -0.236702
H      -0.833929   -2.570430   -2.800794
H      -1.366029    0.001979   -3.768740
H       2.484110   -0.685509   -2.268829
