16

O       0.028928   -0.038037   -0.107042
C      -0.024201    1.158659    0.000918
C      -1.297634    1.975322    0.032902
C      -1.233437    3.070982   -1.054517
O      -0.063721    3.859448   -0.930067
C       1.112337    3.109476   -1.095181
C       1.258779    2.029280    0.017881
C       1.445206    2.645267    1.328875
N       1.580699    3.124454    2.372133
H      -2.156554    1.316907   -0.113814
H      -1.379834    2.461646    1.011890
H      -1.275182    2.606303   -2.052579
H      -2.079741    3.754646   -0.959960
H       1.124468    2.594472   -2.069175
H       1.949548    3.809581   -1.058033
H       2.107247    1.373557   -0.198613
