17

C      -0.138521    1.523195    0.039046
C       0.144144    0.058157   -0.012542
O      -0.704800   -0.828823    0.728185
C       0.700513   -0.906141    0.964800
C       1.314204   -1.782524   -0.154927
O       2.652313   -2.069358    0.071818
C       0.362650   -2.797753   -0.839450
O      -0.118450   -1.781773   -1.756425
C       0.741020   -0.779166   -1.195348
H       0.719408    2.097405   -0.325002
H      -1.002499    1.770990   -0.587603
H      -0.358831    1.833461    1.064100
H       1.061394   -0.788020    1.980963
H       3.032940   -2.434895   -0.734282
H       0.893584   -3.597956   -1.374102
H      -0.439519   -3.219828   -0.228500
H       1.339513   -0.230187   -1.927903
