13

O       0.000227   -0.147401    0.001644
C       0.016989    1.061765    0.007259
C       1.217216    1.860084    0.000238
C       2.197867    2.562604   -0.005215
C       3.386195    3.392316   -0.011579
C       3.099958    4.903102   -0.001742
O       1.988644    5.371394    0.010792
C       4.296113    5.724320   -0.008805
C       5.301900    6.385255   -0.014834
H      -0.918484    1.656223    0.018585
H       4.024313    3.163821    0.853272
H       4.009186    3.172171   -0.889509
H       6.177793    6.988472   -0.019977
