18

O      -0.095317    1.433138   -0.047911
C       0.014486    0.011739    0.055234
C      -1.414644   -0.520941    0.016081
O      -2.172181    0.087727    1.033107
C      -2.026268   -0.546301   -1.422491
C      -1.627026   -2.043703   -1.525765
C      -1.489455   -2.061606    0.022297
O      -0.386237   -2.705039    0.619165
H       0.736766    1.823058    0.232615
H       0.615033   -0.401805   -0.765696
H       0.477943   -0.284487    1.003918
H      -1.889314    1.011876    1.051600
H      -3.107921   -0.405306   -1.370898
H      -1.605625    0.146714   -2.152957
H      -2.344188   -2.732733   -1.976612
H      -0.652172   -2.183396   -2.000835
H      -2.435375   -2.355564    0.496690
H      -0.555847   -3.651546    0.636477
