18

C       0.531385    1.375887   -0.356504
C       0.049181    0.008122    0.089176
O       0.560161   -1.045536   -0.770279
C       1.317284   -1.633410    0.284078
C       2.818340   -1.524345    0.108539
O       3.373285   -0.813623   -0.687740
C       0.699400   -0.656200    1.339829
C       1.597927    0.156215    2.261964
H       1.618928    1.393845   -0.457357
H       0.099259    1.613458   -1.333421
H       0.217556    2.151191    0.351029
H      -1.047746   -0.017541    0.106852
H       1.068875   -2.693750    0.441102
H       3.394554   -2.163258    0.820060
H      -0.054583   -1.178959    1.933227
H       2.392160    0.675447    1.719334
H       1.010839    0.909293    2.797835
H       2.068848   -0.484925    3.014693
