17

O      -0.697891    0.738867    0.602800
C       0.172158    0.921807   -0.207368
C       1.311059    1.905271   -0.050845
C       1.354160    2.904635   -1.217788
C       2.635721    3.792067   -1.210001
C       3.838931    2.917003   -1.578605
O       4.528212    2.355418   -0.770284
C       2.521280    4.904358   -2.143509
C       2.445224    5.796026   -2.945793
H       0.191071    0.351563   -1.166687
H       1.202697    2.417704    0.909173
H       2.246625    1.330103   -0.022878
H       1.295098    2.377786   -2.179009
H       0.485541    3.568265   -1.176067
H       2.802386    4.159619   -0.191013
H       4.003605    2.807316   -2.672808
H       2.374399    6.598248   -3.638559
