18

C      -0.027165    1.536278   -0.229509
C      -0.018043    0.043185   -0.001053
C       1.234006   -0.767919   -0.198405
C       0.683219   -0.588146    1.197792
C       1.385734    0.206207    2.222810
C       2.574983    0.901667    2.186487
N       2.694282    1.418207    3.433321
N       1.658136    1.067776    4.213863
N       0.866345    0.337866    3.484765
H       0.909307    1.998696    0.096202
H      -0.161944    1.767349   -1.291884
H      -0.840527    2.016266    0.325113
H      -0.944852   -0.453339   -0.276022
H       1.167512   -1.751148   -0.650914
H       2.140023   -0.227653   -0.456643
H       0.166035   -1.440732    1.625624
H       3.317164    1.055480    1.422373
H       3.430925    1.988768    3.816099
