16

N       0.165260   -1.022499   -0.447838
C       0.119802    0.052891   -0.029191
C       0.041624    1.423173    0.487077
N       1.300702    2.124191    0.263177
C       1.647328    2.724547   -1.008436
C       0.442646    3.350754   -1.734675
C       0.170251    4.229682   -0.472804
C       1.378805    3.570433    0.218917
H      -0.842883    1.898361    0.038272
H      -0.134659    1.379330    1.567694
H       2.585777    2.429322   -1.463682
H       0.747299    3.949589   -2.594710
H      -0.343027    2.661363   -2.058102
H       0.344175    5.289716   -0.667031
H      -0.799712    4.128762    0.024364
H       2.068149    4.058175    0.899503
