15

C       0.271049    1.454153    0.274855
C      -0.294335    0.111210   -0.201696
C       0.521174   -0.482985   -1.332856
O       1.795312   -1.039725   -0.994023
C       0.795117   -1.943716   -1.456080
C       0.253275   -2.878363   -0.493830
N      -0.189652   -3.639586    0.254062
C       0.512189    0.270419   -2.579645
N       0.475901    0.881288   -3.559554
H       1.299226    1.337884    0.628731
H       0.266351    2.196974   -0.528463
H      -0.331565    1.844060    1.098729
H      -0.309388   -0.612064    0.618306
H      -1.326534    0.228938   -0.550432
H       0.968752   -2.361276   -2.445659
