18

C      -0.028441    1.662602   -0.632479
C      -0.041277    0.230577   -0.158195
C       1.162707   -0.650406   -0.312645
C       0.705866   -0.209949    1.064386
O      -1.255607   -0.465113   -0.442019
C      -2.343814   -0.186564    0.304172
N      -2.351404    0.675703    1.240208
C      -3.467833   -0.989146   -0.101253
C      -4.437309   -1.634587   -0.399343
H       0.964868    2.094930   -0.482310
H      -0.263657    1.713550   -1.700772
H      -0.754418    2.261614   -0.078947
H       0.982552   -1.682312   -0.590666
H       2.060844   -0.213291   -0.734812
H       1.283639    0.535368    1.599467
H       0.232328   -0.951119    1.696387
H      -3.273131    0.717294    1.669388
H      -5.291552   -2.207530   -0.665888
