15

O      -0.062470   -0.032534   -0.157220
C      -0.047420    1.143293    0.010502
C      -1.042047    2.330105    0.014091
C      -0.830382    2.961179    1.399343
C       0.751713    2.957230    1.413594
C       1.359822    2.224745    2.509621
C       1.863316    1.596564    3.402216
C       0.971699    2.306841    0.016583
O      -0.019303    2.997509   -0.801567
H      -2.033088    2.302930   -0.433283
H      -1.232883    3.974489    1.444150
H      -1.257898    2.367106    2.209505
H       1.132581    3.982164    1.385742
H       2.310445    1.044624    4.191738
H       1.974308    2.267359   -0.401966
