23

C       0.062299    1.469026    0.295957
C       0.035504   -0.007472    0.057816
C      -0.075584   -0.641893   -1.111746
C      -0.121090   -2.140513   -0.947664
C       0.360418   -2.357613    0.503702
C      -0.085524   -3.621286    1.293092
C       1.358718   -3.760437    1.843915
C       1.838800   -2.825879    0.702815
C       0.076998   -1.002306    1.200358
H       0.982701    1.772600    0.811428
H      -0.004381    2.031181   -0.639775
H      -0.769589    1.782763    0.940258
H      -0.166125   -0.149514   -2.074861
H      -1.145980   -2.519880   -1.085785
H       0.502533   -2.680266   -1.671123
H      -0.899044   -3.499204    2.014455
H      -0.342815   -4.444652    0.618715
H       1.466175   -3.296340    2.828241
H       1.788959   -4.763597    1.888421
H       2.197508   -3.394986   -0.160682
H       2.579356   -2.058183    0.944249
H       0.829703   -0.752492    1.959342
H      -0.891306   -1.014437    1.725038
