21

C      -0.011787    1.567623    0.066678
C      -0.061343    0.052353    0.006969
C       1.021579   -0.640832   -0.808812
C       1.053693   -0.695217    0.698631
O       1.988114    0.059092    1.418342
C      -1.433519   -0.593534   -0.007754
O      -1.408664   -2.003800    0.026001
C      -2.637887    0.051097    0.635015
C      -2.535136   -0.057073   -0.875130
H       1.023571    1.907630    0.107518
H      -0.486066    2.019033   -0.810841
H      -0.510350    1.952723    0.961964
H       0.760518   -1.550220   -1.337370
H       1.749431   -0.003114   -1.299867
H       0.811703   -1.655189    1.152311
H       2.856351   -0.327549    1.264804
H      -1.308661   -2.272198    0.945542
H      -3.334204   -0.614410    1.133704
H      -2.542828    1.029675    1.089606
H      -2.364298    0.848622   -1.444854
H      -3.154333   -0.797742   -1.367110
