14

C      -0.019061    1.499344    0.000852
C       0.000192    0.000651   -0.058878
N      -0.023387   -0.609201   -1.212748
C      -0.002793   -1.960703   -1.165726
F      -0.027712   -2.532300   -2.359474
C       0.039221   -2.737394   -0.050898
C       0.065346   -2.094885    1.238538
O       0.104418   -2.601467    2.341512
N       0.042336   -0.675076    1.113748
H       0.874806    1.879720    0.506985
H      -0.053692    1.896256   -1.012632
H      -0.892640    1.855055    0.557783
H       0.053446   -3.816500   -0.102768
H       0.059958   -0.175875    1.993640
