20

C      -0.123812    1.554261   -0.142807
C       0.060869    0.066538    0.049258
C       1.400604   -0.606622   -0.136144
C       2.567493    0.166285   -0.458802
C       3.562904    0.785320   -0.732070
N       0.756488   -0.514287    1.191188
C       1.332273    0.330431    2.201932
C       0.594919    0.393046    3.513315
C       1.895401   -0.367012    3.410573
H       0.811743    2.106762   -0.040846
H      -0.518240    1.750107   -1.144993
H      -0.842999    1.948872    0.582639
H      -0.803222   -0.525691   -0.251668
H       1.414685   -1.617626   -0.538847
H       4.441903    1.328569   -0.976716
H       1.849167    1.231477    1.878878
H       0.580353    1.336362    4.047763
H      -0.315835   -0.189430    3.589446
H       1.839680   -1.449114    3.415820
H       2.782184    0.050506    3.873685
