16

O      -0.007999   -0.057765   -0.037776
C      -0.039169    1.139383   -0.026405
N      -1.112094    1.967186   -0.292311
C      -0.843873    3.325872    0.131094
C       0.700017    3.312405    0.114684
C       1.340987    4.129508    1.238799
C       2.792951    4.202574    1.147271
C       3.988561    4.267229    1.055420
O       1.046306    1.926660    0.253436
H      -2.030203    1.557815   -0.233125
H      -1.251262    4.067265   -0.561806
H      -1.231746    3.540799    1.138373
H       1.075761    3.657071   -0.855487
H       0.915739    5.141871    1.206813
H       1.041080    3.690614    2.198294
H       5.046811    4.315629    0.982028
