15

C      -0.823057    1.016722    0.459384
C       0.336823    0.188229   -0.002956
O       1.412414    0.112092    0.501278
N       0.047801   -0.601644   -1.231103
C      -0.484120   -1.868102   -1.096575
N      -0.800254   -2.332554    0.043730
C       0.290300   -0.027294   -2.462522
N       0.676512    1.179689   -2.562312
H      -1.105989    1.709413   -0.339403
H      -1.672509    0.357217    0.662792
H      -0.549757    1.568755    1.358634
H      -0.594539   -2.382554   -2.058916
H      -1.170060   -3.276039   -0.040115
H       0.105878   -0.719272   -3.293246
H       0.811905    1.436558   -3.536810
