23

O      -0.806256    1.128739    0.838758
C       0.034449    0.209884    0.140139
C       0.842688   -0.690315    1.108170
C      -0.007547   -1.975107    1.313299
C      -1.324404   -1.744109    0.529674
C      -0.896651   -0.765358   -0.581276
C      -1.986809   -3.009172    0.039997
C      -2.912018   -3.793311    0.937977
C      -3.467148   -3.043652   -0.248243
H      -0.246133    1.671044    1.402570
H       0.689798    0.756097   -0.553405
H       1.820039   -0.930075    0.676966
H       1.035759   -0.159347    2.046391
H       0.516301   -2.843849    0.898317
H      -0.192080   -2.196878    2.367579
H      -2.027313   -1.210415    1.180677
H      -1.733490   -0.250061   -1.058901
H      -0.336066   -1.300052   -1.359009
H      -1.364229   -3.604214   -0.626423
H      -2.882044   -4.876573    0.895729
H      -3.114121   -3.394373    1.926880
H      -4.040545   -2.142899   -0.053828
H      -3.816202   -3.614835   -1.101475
