15

O      -0.111082    1.403236    0.372580
N       0.058948    0.015812    0.338607
C      -1.007734   -0.568140   -0.013512
C      -2.431569   -0.162147   -0.359060
C      -2.758968   -1.677596   -0.544898
N      -2.872242   -2.094771   -1.945784
C      -1.748470   -2.595218   -2.255572
O      -0.751508   -2.676851   -1.335111
C      -1.285419   -2.052530   -0.146268
H       0.759648    1.712384    0.646621
H      -2.958510    0.337342    0.459741
H      -2.545454    0.437227   -1.266165
H      -3.586062   -2.065631    0.051052
H      -1.486340   -2.998004   -3.227635
H      -1.059453   -2.689403    0.709477
