17

O      -0.000147    1.522967   -0.353160
C       0.045324    0.158890    0.035483
C      -1.272082   -0.472461    0.110176
C      -2.368213   -0.974481    0.122487
C      -3.694921   -1.525329    0.176582
O      -4.167682   -2.269111   -0.963335
C      -3.964207   -2.978085    0.262818
C      -2.875933   -4.021379    0.229285
O      -3.286652   -5.154651   -0.516234
H      -0.494290    1.573512   -1.178242
H       0.688801   -0.432646   -0.635270
H       0.522377    0.145180    1.021794
H      -4.447157   -0.860378    0.600579
H      -4.888930   -3.286213    0.753338
H      -1.954619   -3.577020   -0.170469
H      -2.669838   -4.377264    1.244433
H      -3.480636   -4.846248   -1.408649
