17

C      -0.037440    1.409500   -0.221795
C      -0.033781   -0.030739   -0.006589
C      -0.023391   -1.221836    0.169578
C      -0.039156   -2.667205    0.384708
C      -1.406289   -3.295563    0.152026
C      -1.828287   -3.695884   -1.235530
C      -1.509381   -4.754989   -0.206441
H       0.654516    1.695869   -1.021841
H      -1.033694    1.767624   -0.504824
H       0.262392    1.950624    0.682711
H       0.691907   -3.147099   -0.280492
H       0.296679   -2.889920    1.406915
H      -2.186287   -2.897794    0.794481
H      -2.863304   -3.550966   -1.524194
H      -1.118548   -3.542932   -2.042097
H      -0.587011   -5.314918   -0.325067
H      -2.325728   -5.333599    0.211582
