13

N       0.046954    1.412498    0.148846
C      -0.018810    0.049230    0.050985
C      -1.136404   -0.705061    0.026405
F      -2.376476   -0.219955    0.038998
N      -1.052642   -2.072270   -0.016217
N       0.104024   -2.753588   -0.040079
N       1.196475   -2.104130   -0.032766
C       1.242442   -0.693466    0.000830
N       2.341301   -0.031534   -0.017608
H       0.967523    1.765630   -0.081886
H      -0.739288    1.950716   -0.177635
H      -1.885234   -2.640852   -0.025622
H       3.130752   -0.676322   -0.061828
