18

C       0.102838    1.549237    0.074330
C       0.028331    0.053695    0.035108
C       0.032201   -0.770067   -1.076678
N       0.022160   -0.495126   -2.448620
N      -0.025885   -2.047646   -0.616266
N      -0.056544   -2.121152    0.735995
C      -0.037756   -0.851170    1.130560
C      -0.037893   -0.518732    2.590870
O       1.118825    0.219213    2.991049
H       0.643768    1.948701   -0.792482
H      -0.887084    2.023324    0.082673
H       0.631034    1.874682    0.974180
H       0.030284    0.501343   -2.624071
H       0.794586   -0.921479   -2.948975
H      -0.099485   -2.889247   -1.161599
H      -0.884963    0.127685    2.844955
H      -0.143581   -1.451005    3.162022
H       1.885796   -0.301198    2.729396
