19

C      -0.024362    1.663337    0.160236
C       0.033903    0.141161    0.058167
C       1.085274   -0.515020   -0.890684
N       1.642039   -1.380175    0.214053
C       2.182349   -0.436156    1.205741
C       0.723614   -0.649699    1.175352
N      -1.300993   -0.416251   -0.164056
C      -1.987004   -0.270887   -1.325760
O      -1.575520    0.315127   -2.306938
H       0.967536    2.086949    0.338072
H      -0.415846    2.078139   -0.771587
H      -0.680799    1.968822    0.981913
H       0.639030   -1.122505   -1.675233
H       1.825275    0.161320   -1.329212
H       2.734336   -0.924538    2.003068
H       2.613953    0.502410    0.865941
H       0.197983   -1.169322    1.973901
H      -1.744396   -0.917134    0.589990
H      -2.980699   -0.760887   -1.285214
