17

O       0.033075    1.396998   -0.116177
C       0.062554   -0.014093   -0.124540
C      -1.310898   -0.606636    0.166511
O      -2.221061   -0.181054   -0.867323
C      -3.020758   -1.227535   -1.273248
N      -3.995782   -1.132146   -2.061282
N      -2.605145   -2.455552   -0.681309
C      -1.239590   -2.831620   -1.131843
C      -1.436056   -2.120101    0.152046
H      -0.621103    1.667499   -0.770395
H       0.436457   -0.410877   -1.080453
H       0.761211   -0.320935    0.661278
H      -1.673156   -0.206782    1.121976
H      -4.123616   -0.163017   -2.350685
H      -1.054969   -3.900305   -1.132088
H      -0.826618   -2.290411   -1.977708
H      -1.347990   -2.650043    1.094221
