24

C       0.407559    1.490684    0.253175
C      -0.229843    0.162408   -0.174048
C       0.489135   -0.503706   -1.341113
C       0.416280    0.250425   -2.657313
N       1.769779   -1.148765   -0.985959
C       0.636236   -1.985379   -1.420445
C       0.075154   -2.972585   -0.429615
O       0.679899   -4.225720   -0.680994
C       0.240637   -5.229123    0.200363
H       1.463339    1.340996    0.499029
H       0.345925    2.250116   -0.532755
H      -0.093630    1.894787    1.137966
H      -0.228756   -0.515656    0.683458
H      -1.281073    0.321545   -0.448460
H       0.900841    1.229816   -2.582540
H       0.911622   -0.307725   -3.458276
H      -0.623459    0.418953   -2.960034
H       2.445516   -1.047214   -1.739337
H       0.680907   -2.401949   -2.426156
H       0.283723   -2.644865    0.599227
H      -1.021180   -3.051341   -0.543315
H       0.483907   -4.990651    1.248195
H      -0.848068   -5.388425    0.131570
H       0.749859   -6.155537   -0.076956
