21

O      -0.135877    1.443440   -0.175998
C       0.002535    0.059012    0.068849
C       0.208867   -0.424445    1.548979
C      -1.088022   -1.241266    1.428207
C      -2.213175   -0.292038    1.123977
C      -1.305167   -0.710168   -0.002803
C      -1.314469   -2.608122    1.969673
C      -0.197614   -3.615018    2.108658
C      -0.809431   -2.996149    3.340605
H       0.728011    1.854512   -0.069638
H       0.762982   -0.381236   -0.590114
H       1.114977   -1.023610    1.668235
H       0.199577    0.365934    2.306790
H      -3.201811   -0.740191    1.098692
H      -2.194969    0.732798    1.484746
H      -1.679524   -1.226102   -0.879006
H      -2.280493   -3.024705    1.695196
H      -0.419586   -4.653183    1.887146
H       0.807299   -3.311926    1.835231
H      -0.217664   -2.265574    3.882205
H      -1.443830   -3.608638    3.971778
