15

O      -0.121287    1.372410    0.341976
C       0.027925    0.024725    0.008700
C      -0.452566   -0.455039   -1.360572
C      -1.237132   -0.784724   -0.123314
O      -1.310707   -2.091742    0.373926
C      -0.200683   -2.763963    0.812758
O      -0.305479   -3.927528    1.099168
C       1.046179   -1.990374    0.965741
C       1.146820   -0.696901    0.642183
H       0.438855    1.893517   -0.244561
H      -0.881856    0.297091   -2.013740
H       0.114702   -1.242633   -1.843453
H      -2.176307   -0.268101    0.032836
H       1.861533   -2.544756    1.413701
H       2.052270   -0.131765    0.849063
