16

C      -0.118406    1.526359    0.055636
C       0.034878    0.042669    0.108112
O      -1.128814   -0.748046   -0.079627
C      -0.648571   -1.730433    0.875933
C       0.655444   -0.967744    1.064161
C       1.258793   -0.753824   -0.328015
O       1.132636   -1.692530   -1.345604
C       2.508961   -0.023819   -0.321855
N       3.519038    0.541038   -0.323042
H       0.841534    2.024487    0.207953
H      -0.509243    1.821698   -0.923848
H      -0.821963    1.864078    0.821682
H      -1.279237   -1.735097    1.770016
H      -0.589560   -2.733190    0.442921
H       1.228131   -0.853149    1.974823
H       1.759475   -2.407297   -1.181479
