20

C      -0.128322    1.537305    0.011592
C       0.066050    0.027871   -0.037576
N       0.896887   -0.469778   -1.181574
C       1.091769   -1.909681   -0.752294
C       1.954401   -1.349056    0.424400
C       2.941852   -2.122822    1.256262
C       2.300423   -0.258830   -0.640862
C       0.855447   -0.576369    1.150015
O       0.668881   -0.457265    2.331941
H       0.822220    2.077841    0.033893
H      -0.692610    1.877377   -0.860631
H      -0.681686    1.802457    0.916864
H      -0.917006   -0.454767   -0.097753
H       0.171952   -2.458776   -0.528859
H       1.684916   -2.451026   -1.494015
H       3.691207   -2.622172    0.634261
H       3.460269   -1.458135    1.954769
H       2.430257   -2.883026    1.855513
H       3.037356   -0.597825   -1.373339
H       2.541203    0.755338   -0.313485
