15

C       0.000655    1.505297   -0.033240
C      -0.006196    0.007782   -0.021459
C      -1.133972   -0.715701   -0.124878
N      -1.085147   -2.107099   -0.109136
C       0.130416   -2.696622    0.013777
F       0.050329   -4.020212    0.016826
N       1.250680   -2.116180    0.117736
C       1.281655   -0.701984    0.109058
N       2.369079   -0.034439    0.208804
H       0.622058    1.876341   -0.854333
H      -1.009317    1.912630   -0.134104
H       0.454459    1.890685    0.885129
H      -2.121872   -0.285151   -0.223989
H      -1.913412   -2.673635   -0.184311
H       3.152753   -0.684559    0.290106
