19

O      -0.135373    1.353758   -0.069086
C      -0.022829   -0.031606    0.010454
C       0.437880   -0.778810    1.298322
C      -0.392893   -1.918262    0.692556
C      -1.356683   -0.886607    0.031920
C      -1.442112   -1.747402   -1.237580
C       0.014335   -2.125225   -0.843894
O       0.680649   -3.245938   -1.326007
C       0.751047   -0.799562   -1.086958
H       0.750033    1.728650   -0.131375
H       1.511887   -0.912430    1.465373
H      -0.037793   -0.374718    2.196802
H      -0.743767   -2.789171    1.245365
H      -2.213362   -0.457364    0.546778
H      -2.143623   -2.577193   -1.094497
H      -1.607917   -1.283561   -2.214799
H       0.129098   -4.018525   -1.164698
H       0.586499   -0.406561   -2.093721
H       1.825307   -0.862950   -0.890044
