18

C       0.051252    1.572154   -0.098150
C      -0.047476    0.036131    0.062481
C       0.606701   -0.630454   -1.153006
O       0.000713   -1.200694   -2.018450
C       0.611545   -0.428094    1.278242
C       1.193610   -0.825838    2.257640
C       1.893060   -1.299058    3.418278
C       1.219742   -2.246554    4.358642
N       2.312513   -2.720881    3.506851
H       1.095710    1.887659   -0.178324
H      -0.483754    1.892758   -0.996246
H      -0.386789    2.068466    0.770773
H      -1.101453   -0.263385    0.056296
H       1.714618   -0.526189   -1.177062
H       2.630323   -0.614037    3.829063
H       1.453355   -2.190658    5.417989
H       0.200937   -2.540120    4.124474
H       1.930690   -3.224310    2.709384
