17

C      -0.077369    1.589628    0.047942
C       0.048887    0.075454   -0.040402
C      -1.307595   -0.629460    0.018235
C       0.904623   -0.405067   -1.228298
O       1.656235   -1.489769   -0.682564
C       1.679091   -1.366418    0.679315
N       2.355820   -2.053510    1.485906
O       0.850291   -0.376944    1.077848
H       0.910117    2.056491    0.088167
H      -0.613811    1.977438   -0.823835
H      -0.632198    1.876385    0.945192
H      -1.956101   -0.283072   -0.792745
H      -1.185576   -1.712588   -0.075388
H      -1.799570   -0.419747    0.971388
H       0.311063   -0.775887   -2.066650
H       1.589720    0.374281   -1.583275
H       2.942252   -2.709436    0.975357
