19

C       0.188935    1.417426    0.112374
O       0.031103    0.019148    0.083858
C       0.552727   -0.557194   -1.101754
C       0.422136   -2.034448   -1.051705
C      -0.417509   -2.915379   -1.659292
C      -0.048266   -4.229484   -1.209270
C      -0.673062   -5.535136   -1.591510
C       0.995319   -4.028834   -0.359462
O       1.298239   -2.708253   -0.253305
H       1.249664    1.711928    0.060867
H      -0.341394    1.908692   -0.719784
H      -0.230820    1.773189    1.056216
H       0.011681   -0.183642   -1.985920
H       1.612701   -0.276124   -1.220557
H      -1.212314   -2.663838   -2.345579
H      -0.609588   -5.710673   -2.671495
H      -0.178613   -6.371421   -1.089414
H      -1.735084   -5.566552   -1.322954
H       1.606630   -4.699273    0.223118
