14

C      -0.002418    1.407050    0.039743
N       0.025690   -0.040638    0.026351
N       0.054322   -0.747556   -1.141539
C       0.072685   -1.996321   -0.718334
N       0.059133   -2.158412    0.637497
C       0.029552   -0.911330    1.051062
O       0.006111   -0.445614    2.320608
C      -0.022496   -1.364725    3.355383
O      -0.039165   -0.991849    4.482210
H       0.886660    1.800950   -0.458059
H      -0.893546    1.766605   -0.479924
H      -0.021568    1.741605    1.076995
H       0.097505   -2.829261   -1.404459
H      -0.026664   -2.398505    2.988202
