16

C       0.124696    1.395783    0.147866
N      -0.170152    0.003747   -0.122604
C       0.519858   -0.652439   -1.118464
C       1.215513   -0.108160   -2.196711
N       1.663007   -1.191130   -2.905250
C       1.250162   -2.319836   -2.254022
C       1.588313   -3.641238   -2.770579
O       1.279857   -4.698033   -2.272925
N       0.555630   -2.009654   -1.164752
H       1.186477    1.585841    0.373717
H      -0.152318    2.013905   -0.714160
H      -0.476337    1.730818    0.995658
H      -0.318530   -0.581395    0.686118
H       1.413423    0.903943   -2.503649
H       2.207873   -1.161012   -3.751688
H       2.187423   -3.595541   -3.712731
