18

C      -0.020918    1.533243   -0.077952
C       0.067219    0.020087    0.014336
O       0.707365   -0.456440   -1.169448
C       0.846626   -1.848519   -1.204550
C       1.564971   -2.391049    0.011697
N       2.102688   -3.638475   -0.131012
C       1.564891   -1.677215    1.163733
C       0.810017   -0.443180    1.283486
O       0.713938    0.190122    2.322418
H       0.977262    1.958428   -0.216048
H      -0.648184    1.830633   -0.921822
H      -0.438030    1.926781    0.849940
H      -0.951042   -0.410032    0.069610
H      -0.134048   -2.353230   -1.289804
H       1.412887   -2.085919   -2.113928
H       2.376539   -3.943072   -1.051515
H       2.668825   -3.999997    0.620792
H       2.080915   -2.028405    2.052597
