17

O      -0.103028    1.498370   -0.109609
C      -0.009066    0.120093    0.048477
C      -1.267319   -0.735091    0.152902
C      -2.575696   -0.059294   -0.244587
C      -2.503905   -0.038063   -1.797167
O      -1.092282   -0.056423   -2.112225
C      -0.419231   -0.767798   -1.094448
C      -3.192325   -1.172285   -2.414530
C      -3.761968   -2.106409   -2.911834
H      -0.292275    1.645926   -1.047131
H       0.841175   -0.178730    0.655417
H      -1.282723   -1.567562    0.845534
H      -3.447440   -0.610088    0.109721
H      -2.621667    0.963695    0.139135
H      -2.895106    0.895535   -2.213758
H       0.154924   -1.621883   -1.436596
H      -4.265134   -2.927493   -3.359907
