23

C       0.079217    1.568256    0.112022
C       0.030565    0.040725    0.073201
O       0.692561   -0.524842    1.202955
C      -1.403623   -0.492295   -0.066485
C      -1.460327   -2.020974   -0.166187
C      -2.888646   -2.608436   -0.143253
C      -3.730851   -2.198265   -1.364005
C      -2.787106   -4.120457   -0.098887
O      -3.165210   -4.819922    0.804748
H       1.110449    1.911826    0.228736
H      -0.331868    2.003451   -0.804633
H      -0.507870    1.954221    0.955262
H       0.619273   -0.312073   -0.783580
H       0.258790   -0.186342    1.994617
H      -1.988278   -0.156274    0.803385
H      -1.864873   -0.026736   -0.945489
H      -0.950273   -2.344666   -1.084506
H      -0.884689   -2.435972    0.667921
H      -3.394662   -2.300276    0.778831
H      -3.260135   -2.531757   -2.296285
H      -4.732903   -2.635450   -1.316896
H      -3.844280   -1.112571   -1.417591
H      -2.309780   -4.566100   -1.006047
