15

C       0.059689    1.553564   -0.035468
C       0.062084    0.028090   -0.025625
O       0.829366   -0.502138    1.042368
C      -1.383872   -0.538273    0.004820
O      -2.164088   -0.025681   -1.073212
C      -1.390172   -2.000977    0.024117
C      -1.404305   -3.201469   -0.034792
H       1.083365    1.930705   -0.102569
H      -0.523572    1.935520   -0.875868
H      -0.389623    1.943104    0.887702
H       0.544306   -0.349077   -0.935820
H       0.511908   -0.106242    1.861889
H      -1.869404   -0.161384    0.916541
H      -1.980243   -0.572091   -1.845183
H      -1.414883   -4.263142   -0.063638
