18

C      -0.093832    1.527618   -0.017625
N       0.104358    0.088339    0.080678
C       1.374724   -0.558047   -0.148310
C       2.582446    0.251493    0.376293
C       1.909370    0.236401    1.765257
C       2.587507    0.064836    3.065452
N       1.818157    1.294594    2.772015
C       0.725881   -0.548174    1.221712
H       0.737098    2.142147    0.351351
H      -0.273564    1.782543   -1.066934
H      -0.985646    1.793831    0.556723
H       1.429644   -1.359462   -0.876715
H       3.513765   -0.320023    0.353378
H       2.753487    1.226977   -0.090856
H       2.150613   -0.570958    3.831716
H       3.673502    0.116671    3.086622
H       2.456991    2.051619    2.537393
H       0.181059   -1.323510    1.750298
