19

C       0.028477    1.498375    0.048050
C      -0.003685    0.001839   -0.014305
C      -0.058087   -0.729416   -1.130752
C      -0.059202   -2.240767   -1.036140
C       0.050049   -2.640979    0.438350
O      -0.938885   -1.885281    1.211130
C       0.044645   -0.798748    1.274275
C       1.163171   -1.871731    1.194375
O       1.516506   -2.450354    2.423374
H       0.930041    1.857566    0.561415
H       0.010137    1.942117   -0.951049
H      -0.827288    1.889336    0.613321
H      -0.118742   -0.267379   -2.112668
H      -0.975755   -2.658864   -1.473975
H       0.777750   -2.672060   -1.602484
H      -0.022577   -3.718668    0.612038
H      -0.049813   -0.205177    2.187405
H       2.087201   -1.617705    0.672138
H       0.691282   -2.676851    2.870674
