16

O       0.010632    1.367333   -0.214198
C       0.051108   -0.043939   -0.054716
C       0.255293   -0.517969    1.402630
C      -1.303154   -0.572214    1.584436
C      -1.852646    0.643672    2.150060
C      -2.277132    1.682709    2.587510
C      -1.389324   -0.630171   -0.003749
O      -2.377866    0.060086   -0.685738
H      -0.318533    1.758989    0.605538
H       0.727393   -0.420776   -0.824906
H       0.698762   -1.515235    1.451055
H       0.806642    0.153942    2.062855
H      -1.697168   -1.448919    2.104511
H      -2.678095    2.578590    2.993453
H      -1.414904   -1.679673   -0.312986
H      -2.055287    0.969752   -0.763884
