16

O      -0.150994    1.396031    0.511025
N      -0.053880   -0.000636    0.617660
C      -1.011806   -0.570050    0.020488
C      -2.276839   -0.153664   -0.692233
C      -2.810377   -1.604649   -0.453903
O      -3.449026   -2.282496   -1.484661
C      -1.338963   -2.060653   -0.037777
C      -0.671010   -2.778019   -1.107240
C      -0.194439   -3.359415   -2.047456
H       0.614535    1.692238    1.015575
H      -2.837536    0.678565   -0.261997
H      -2.109569    0.046331   -1.756612
H      -3.468659   -1.644245    0.417124
H      -2.778365   -2.537809   -2.133066
H      -1.260311   -2.601378    0.909295
H       0.272357   -3.878738   -2.848109
