21

C       0.039836    1.476554    0.046430
C      -0.011033   -0.062205   -0.044160
C      -1.463802   -0.577121   -0.008023
C       0.696072   -0.537428   -1.235353
C       1.285357   -0.877305   -2.234060
C       1.954357   -1.371657   -3.400815
C       3.329452   -2.033227   -3.270194
C       2.119437   -2.883053   -3.517780
O       1.622083   -3.705774   -2.514972
H       1.071756    1.836618    0.050166
H      -0.474759    1.929222   -0.806759
H      -0.450844    1.817473    0.963607
H       0.509280   -0.465251    0.836182
H      -2.029004   -0.195567   -0.863941
H      -1.496852   -1.669484   -0.041022
H      -1.961458   -0.244387    0.908476
H       1.761324   -0.829010   -4.321245
H       4.037440   -1.872182   -4.075845
H       3.756030   -2.072233   -2.274861
H       1.990825   -3.312095   -4.508190
H       1.088271   -3.156082   -1.924526
