18

C      -0.167424    1.531180   -0.177415
C      -0.149253    0.030186    0.014468
C       1.097372   -0.726412   -0.189009
O       0.612681   -0.442602    1.128223
C      -1.467804   -0.671249   -0.190617
C      -1.739641   -2.011442    0.430775
N      -2.411928   -0.826012    0.906020
C      -2.312163   -0.339827    2.200185
O      -2.356154   -1.022430    3.192195
H       0.828128    1.950151   -0.014545
H      -0.494002    1.787450   -1.190823
H      -0.858292    2.005140    0.527097
H       1.053042   -1.772792   -0.485135
H       2.004909   -0.196100   -0.473146
H      -1.939476   -0.443190   -1.146048
H      -2.352210   -2.735101   -0.099661
H      -0.974588   -2.419347    1.085241
H      -2.281367    0.766242    2.224580
