23

C      -0.115536    1.565196    0.105374
C       0.019860    0.035007    0.057923
C       0.654042   -0.500917    1.351245
C      -1.352559   -0.609008   -0.162376
O       0.770400   -0.381739   -1.096362
C       2.108406    0.043501   -1.220309
C       2.635001   -0.552377   -2.533296
C       4.021788   -0.188658   -2.789152
C       5.166592    0.127027   -2.974772
H       0.839832    2.058271    0.307511
H      -0.504720    1.941558   -0.845475
H      -0.808500    1.858918    0.899807
H      -0.002073   -0.302876    2.204415
H       0.806441   -1.582055    1.279621
H       1.617691   -0.029235    1.564832
H      -1.791867   -0.250824   -1.097495
H      -1.253351   -1.696082   -0.226864
H      -2.033153   -0.367718    0.659147
H       2.191558    1.138608   -1.259107
H       2.731986   -0.307314   -0.386164
H       2.528190   -1.642652   -2.489370
H       1.993126   -0.210699   -3.353839
H       6.177689    0.397978   -3.151726
