18

C       0.061740    1.420654   -0.035185
N       0.077968   -0.030448    0.000984
C       0.211305   -0.646543    1.304679
C      -0.026094   -0.722342   -1.176277
O      -0.132216   -0.186064   -2.268897
C      -0.006982   -2.175368   -1.079142
C      -0.000642   -3.380957   -1.135784
C      -0.027380   -4.836586   -1.270962
O       0.338867   -5.291468   -2.562090
H       0.992757    1.826434    0.380099
H      -0.043982    1.738143   -1.071228
H      -0.775768    1.810814    0.556609
H      -0.620246   -0.353550    1.958696
H       0.213613   -1.731573    1.206915
H       1.146916   -0.334805    1.786816
H       0.687138   -5.292637   -0.576500
H      -1.026865   -5.198515   -0.978467
H      -0.182935   -4.799531   -3.205257
