15

F      -0.812895    0.261184   -0.239712
C      -0.065088    1.325256    0.111559
F       1.206212    0.922666    0.163681
F      -0.169850    2.235300   -0.866452
C      -0.545410    1.905938    1.430733
N      -0.544125    0.881720    2.458922
C      -0.901769    1.370737    3.780086
C       0.279200    2.069457    4.443409
O       0.177625    2.960230    5.243884
H       0.146301    2.709478    1.704794
H      -1.530026    2.368273    1.246070
H      -1.148268    0.118974    2.178761
H      -1.773078    2.045352    3.812475
H      -1.137449    0.504797    4.413193
H       1.265452    1.659521    4.127266
