15

O      -0.112109   -0.040236   -0.045572
C      -0.019459    1.142622    0.166369
C       1.262175    1.927281    0.043824
C       1.255734    3.169041   -0.929877
C       1.581379    4.073966    0.273929
O       0.513244    3.877879    1.223828
C       1.560298    2.912923    1.196461
C       2.310324    5.293380    0.288360
C       2.935278    6.319811    0.250022
H      -0.898298    1.749852    0.471591
H       2.090344    1.247267   -0.162462
H       2.059936    3.110149   -1.664132
H       0.313041    3.405752   -1.428175
H       2.102224    2.731944    2.117408
H       3.484690    7.228735    0.228204
