17

C       0.013604    1.424684    0.469340
C      -0.060863   -0.059254    0.172541
C      -1.278108   -0.689094   -0.351310
O      -0.163659   -0.423956   -1.206863
C       1.368716    2.002047    0.182089
C       2.190889    2.659755    1.043063
O       3.341711    3.038713    0.425543
C       3.253006    2.608711   -0.861603
C       2.075106    1.970253   -1.072652
H      -0.751829    1.930083   -0.132553
H      -0.245172    1.590276    1.522190
H       0.634769   -0.680423    0.738913
H      -1.475646   -1.741577   -0.153499
H      -2.161732   -0.077950   -0.532439
H       2.104066    2.932189    2.082491
H       4.100717    2.833587   -1.487637
H       1.733365    1.516670   -1.989383
