20

C      -0.070659    1.419759   -0.327914
N       0.045167    0.092865    0.252479
C      -1.216328   -0.640230    0.367770
C      -1.092286   -1.821278    1.323185
C       0.092961   -2.716187    0.954136
O       0.093786   -3.910160    1.205588
C       1.210654   -2.001808    0.369879
C       1.184042   -0.662289    0.099641
C       2.433919    0.037404   -0.364807
H       0.841970    1.996356   -0.177235
H      -0.291425    1.394858   -1.407349
H      -0.886372    1.952936    0.168088
H      -1.986906    0.057546    0.709299
H      -1.520248   -1.002235   -0.630150
H      -0.927388   -1.457843    2.346556
H      -2.008293   -2.416375    1.328461
H       2.129925   -2.554395    0.221008
H       3.258299   -0.674155   -0.413395
H       2.308824    0.488099   -1.355522
H       2.719563    0.840285    0.324423
