23

C       0.088509    1.357103    0.108710
O       0.037578   -0.047804    0.086223
C      -1.275940   -0.548925   -0.039320
C      -1.199214   -2.071055   -0.070925
C      -2.578601   -2.770510   -0.048873
C      -3.428588   -2.461558   -1.299707
C      -2.410140   -4.215751    0.112363
C      -2.258634   -5.405480    0.223525
C      -2.080356   -6.843746    0.368321
H       1.137906    1.646270    0.206372
H      -0.316287    1.797805   -0.816799
H      -0.475044    1.774808    0.958775
H      -1.896895   -0.213876    0.811574
H      -1.745383   -0.150947   -0.954286
H      -0.642293   -2.388839   -0.959486
H      -0.619242   -2.398083    0.797699
H      -3.126772   -2.394774    0.828157
H      -2.901244   -2.771289   -2.207534
H      -4.377903   -3.001960   -1.260839
H      -3.649177   -1.392941   -1.376762
H      -3.044108   -7.361891    0.427246
H      -1.530716   -7.265600   -0.480591
H      -1.519130   -7.086657    1.277558
