18

N      -0.037627    1.215957    0.277414
C      -0.012750   -0.008179   -0.022721
O       1.130102   -0.722103   -0.300139
C       0.779871   -2.009468   -0.779239
C       0.085378   -2.977905    0.152197
C      -0.261511   -2.511035    1.568336
C      -1.426439   -1.509226    1.374675
C      -1.210317   -0.946803   -0.054611
C      -0.703898   -2.154465   -0.859200
H       0.905110    1.609199    0.270826
H       1.469969   -2.362253   -1.535431
H       0.271784   -4.030681   -0.029905
H      -0.550342   -3.355496    2.198611
H       0.598404   -2.029442    2.045664
H      -2.383428   -2.041115    1.398764
H      -1.455310   -0.719623    2.129699
H      -2.089495   -0.447234   -0.458724
H      -1.236264   -2.554871   -1.711625
