19

C       0.144977    1.601246   -0.180910
C       0.008001    0.083110   -0.006402
C       0.574221   -0.376206    1.338431
O       1.950452   -0.035807    1.380576
C      -1.446000   -0.381839   -0.142877
C      -1.993326   -0.318876   -1.548761
O      -1.349494   -0.086761   -2.546057
C      -3.495430   -0.597790   -1.723184
O      -4.245604   -0.815286   -0.808948
H       1.185185    1.902463   -0.043216
H      -0.177741    1.913060   -1.177057
H      -0.462309    2.135028    0.561048
H       0.596587   -0.407704   -0.790741
H       0.018025    0.108065    2.159190
H       0.433370   -1.464522    1.445525
H       2.288342   -0.245153    2.255779
H      -1.565571   -1.427118    0.182124
H      -2.123998    0.182762    0.510817
H      -3.812780   -0.572380   -2.787330
