25

C      -0.537980    2.241358    2.282864
C      -0.171047    1.294112    1.133189
C       0.637326    0.101484    1.604146
C       0.018687   -1.192948    2.128589
C      -1.474025   -1.434361    2.213702
C       0.796679   -1.176823    0.825910
C       0.134612   -1.388736   -0.519354
O       2.111495   -1.681750    0.893597
C       2.204945   -3.090798    0.924373
H       0.359909    2.613897    2.788031
H      -1.100112    3.107499    1.919545
H      -1.150669    1.732110    3.033922
H      -1.087443    0.972726    0.626842
H       0.409211    1.844134    0.380600
H       1.551867    0.382429    2.121685
H       0.574907   -1.634214    2.952241
H      -2.025009   -0.969504    1.392401
H      -1.700543   -2.506372    2.191134
H      -1.882272   -1.032467    3.147958
H      -0.835364   -0.892707   -0.583596
H       0.773479   -0.988561   -1.313546
H      -0.030473   -2.452142   -0.723132
H       1.889806   -3.555626   -0.020721
H       3.256697   -3.335288    1.094068
H       1.604306   -3.522269    1.738520
