20

C      -0.100274    1.559696   -0.204517
C       0.035649    0.049371   -0.084408
C       1.119363   -0.653237   -0.918794
N       2.424685   -0.167391   -0.407744
C       1.714267   -1.265791    0.297040
C       0.697687   -0.574677    1.202122
C       1.152210    0.215402    2.440364
O       0.406269   -0.655781    3.322326
C      -0.136999   -1.387882    2.208187
H       0.874517    2.041892   -0.094061
H      -0.508440    1.835407   -1.183191
H      -0.774937    1.961221    0.559285
H      -0.931441   -0.440981   -0.245350
H       1.031774   -1.043980   -1.925438
H       3.150554   -0.597511   -0.980456
H       2.183415   -2.231749    0.444893
H       2.229151    0.194769    2.643698
H       0.797852    1.252465    2.498641
H      -1.224902   -1.257168    2.118666
H       0.085872   -2.461856    2.268129
