17

C       0.103551    1.577480   -0.231656
C      -0.019796    0.077866    0.053699
N       0.521501   -0.749711   -1.016886
C       1.829485   -1.111278   -0.754607
O       2.641093   -1.558687   -1.515483
O       2.072495   -0.883027    0.571453
C       0.852820   -0.466106    1.217282
C       1.177582    0.479542    2.356554
H       1.147951    1.868871   -0.378680
H      -0.449943    1.832657   -1.141217
H      -0.312868    2.172315    0.586732
H      -1.069947   -0.172710    0.238770
H       0.287825   -0.578473   -1.982541
H       0.370405   -1.369996    1.612140
H       1.692998    1.374268    1.999804
H       0.260473    0.782941    2.871413
H       1.824369   -0.021967    3.080764
