21

C      -0.017203    1.549575    0.161845
C       0.085322    0.043302    0.012090
C       0.813959   -0.455614   -1.252828
C       1.533906   -1.741945   -0.794380
C       1.210033   -1.794329    0.737278
O       0.851492   -0.480927    1.098545
C       1.058864   -3.015623   -1.488010
C       1.936766   -4.239891   -1.300905
O       0.032402   -3.059662   -2.126859
H       0.979506    2.001726    0.147060
H      -0.605389    1.974374   -0.657221
H      -0.501775    1.812943    1.106066
H      -0.922981   -0.403410    0.042346
H       0.120163   -0.665878   -2.068523
H       1.539128    0.290420   -1.589825
H       2.617434   -1.658650   -0.921512
H       0.375828   -2.491891    0.924061
H       2.060617   -2.100512    1.351313
H       2.138207   -4.415910   -0.238065
H       1.457147   -5.116149   -1.738220
H       2.908208   -4.075543   -1.781924
