20

C      -0.299086    1.811965    0.427271
C      -0.402784    0.298433    0.232699
C       0.680980   -0.503758    1.002831
C       0.330870   -1.970622    0.971440
C       0.916065   -2.951461    0.292342
C       2.095061   -2.811290   -0.625596
O       3.177160   -1.991491   -0.171891
C       2.977858   -0.690503    0.159601
N       1.994024   -0.043099    0.601471
H       0.677977    2.177892    0.104980
H      -1.073964    2.331110   -0.145429
H      -0.425444    2.082351    1.481746
H      -1.387215   -0.055074    0.562039
H      -0.320908    0.044215   -0.831040
H       0.593803   -0.187232    2.054983
H      -0.545087   -2.217238    1.570512
H       0.501392   -3.954569    0.356451
H       2.556668   -3.787186   -0.795778
H       1.769560   -2.433302   -1.606326
H       3.921508   -0.161831    0.010752
