15

O      -0.011948    0.028262   -0.046230
C       0.002232    1.229235   -0.025502
C      -1.207297    2.155252    0.136606
O      -0.811213    3.442631   -0.313745
C       0.606256    3.552963   -0.394026
C       1.320807    4.024301    0.897842
N       1.587072    2.605348    1.241750
C       1.210365    2.157581   -0.126881
H      -2.052629    1.801874   -0.461779
H      -1.513030    2.169998    1.193118
H       0.852233    4.085001   -1.313981
H       2.218576    4.618796    0.682757
H       0.698982    4.559109    1.622719
H       2.529330    2.374157    1.529690
H       2.005894    1.782028   -0.774558
