14

O      -0.210720    0.133989   -0.924112
C      -0.105088    1.220346   -0.427658
O      -1.087391    2.170722   -0.470100
C      -0.648107    3.346044    0.211803
C       0.735481    3.029674    0.694940
C       1.047154    1.790101    0.319788
C       2.281873    0.963015    0.525076
C       3.317541    1.661544    1.281368
N       4.120068    2.236165    1.881159
H      -0.670013    4.193228   -0.484808
H      -1.343226    3.564907    1.031787
H       1.348092    3.724238    1.254902
H       2.019671    0.029920    1.039051
H       2.684968    0.653788   -0.447327
