23

C      -1.559862   -0.053368    0.270074
C      -0.028859   -0.048259    0.255168
C       0.571294   -0.603827   -1.045259
C       2.085559   -0.350551   -1.116305
O       2.303988    1.039638   -1.201716
C       3.670552    1.379220   -1.216316
C       0.351808   -2.116036   -1.178210
C      -0.003973   -2.637555   -2.557183
O       0.479496   -2.853561   -0.227097
H      -1.969159    0.540629   -0.555181
H      -1.957666   -1.070197    0.183424
H      -1.943614    0.369626    1.203403
H       0.345053    0.970711    0.390500
H       0.351137   -0.651826    1.086467
H       0.122406   -0.099283   -1.910189
H       2.569347   -0.771382   -0.219500
H       2.527980   -0.857317   -1.992255
H       4.184002    1.047967   -0.300147
H       4.192111    0.936664   -2.079897
H       3.735668    2.467723   -1.284797
H      -1.001890   -2.276648   -2.834537
H       0.688978   -2.249804   -3.312103
H       0.003502   -3.728222   -2.563712
