18

C      -0.011327    1.503798    0.026267
C      -0.015543   -0.000910   -0.037075
C       0.290342   -0.838225   -1.299767
N      -0.485503   -1.973583   -0.675786
C       0.236583   -2.247814    0.602018
C       0.580330   -0.830996    1.130033
C      -0.725638   -1.501179    1.477108
O      -1.273162   -1.746551    2.707393
C      -1.276867   -0.928237    0.139228
H       1.009235    1.898556   -0.042430
H      -0.593013    1.938079   -0.794239
H      -0.439911    1.860104    0.969407
H      -0.244957   -0.479463   -2.184874
H       1.329081   -1.067195   -1.557762
H       0.847953   -3.124424    0.773603
H       1.437700   -0.626178    1.757187
H      -1.807194   -2.547633    2.649487
H      -2.297899   -0.692328   -0.158079
