19

C      -0.053007    1.461233   -0.278453
N      -0.026746    0.022723   -0.015857
C      -1.031770   -0.550299    0.971092
C      -0.098835   -1.784220    1.048856
C       0.781877   -0.511121    1.161382
C       2.298230   -0.466213    1.196796
C       2.832613    0.879825    1.401050
N       3.239075    1.948292    1.569630
C      -0.255620    0.056874    2.175001
H       0.871477    1.740803   -0.792115
H      -0.884528    1.661356   -0.962170
H      -0.162382    2.122150    0.592988
H      -2.103145   -0.529010    0.770766
H      -0.176111   -2.411387    1.938641
H       0.010805   -2.348096    0.122127
H       2.662995   -1.111434    2.004338
H       2.691435   -0.869439    0.256539
H      -0.286710    1.137133    2.307083
H      -0.342941   -0.454941    3.137349
