21

C       0.195083    1.482333    0.128200
C      -0.037069   -0.027562    0.129791
O       0.464537   -0.637164    1.313289
C      -1.515608   -0.433015   -0.098375
O      -1.849694    0.108303   -1.376545
C      -1.698860   -1.978910   -0.025513
C      -2.340658   -2.281629    1.348974
C      -2.863012   -0.934378    1.787711
C      -2.428076    0.057239    1.009953
H       1.262715    1.692519    0.234478
H      -0.168071    1.927089   -0.800793
H      -0.325986    1.963223    0.964762
H       0.536886   -0.477515   -0.688499
H      -0.033329   -0.269781    2.053366
H      -2.787218   -0.053800   -1.524748
H      -2.377326   -2.272691   -0.833607
H      -0.757127   -2.509146   -0.176829
H      -3.132012   -3.038477    1.297915
H      -1.595956   -2.657600    2.060949
H      -3.508531   -0.812084    2.651890
H      -2.662068    1.109076    1.131897
