17

C      -0.425896    1.382764   -0.012749
N       0.256782    0.099858   -0.157707
C       0.753514   -0.453257    1.034587
C       1.080643   -1.839482    1.434106
C       2.629196   -1.927187    1.401919
N       3.044344   -0.611268    2.009237
C       1.958128    0.034980    1.944777
O       1.161881    0.260654    3.082400
C       0.309038   -0.757423    2.403517
H       0.278378    2.120735    0.384700
H      -0.756239    1.727735   -0.995709
H      -1.295852    1.351861    0.662004
H      -0.303223   -0.572641   -0.667595
H       0.456224   -2.680328    1.133204
H       3.037930   -2.685843    2.075541
H       3.004321   -2.127087    0.387164
H      -0.636962   -0.960734    2.891548
