19

C      -0.007685    1.526564    0.069539
C       0.020707    0.008528   -0.008293
C       0.736661   -0.516668   -1.263715
C       1.047793   -1.976003   -1.125436
C       0.973863   -2.608446    0.053144
C       0.610550   -1.866823    1.314800
O       0.681728   -0.463086    1.159497
C       1.244351   -4.049796    0.140240
O       1.183021   -4.693772    1.164450
H       1.011769    1.921413    0.121524
H      -0.500615    1.949019   -0.811372
H      -0.547088    1.852992    0.962171
H      -1.013328   -0.378390   -0.016335
H       0.118131   -0.343730   -2.153698
H       1.667592    0.045832   -1.426922
H       1.338470   -2.531478   -2.015750
H      -0.394612   -2.175681    1.650148
H       1.303763   -2.134193    2.117632
H       1.517202   -4.527078   -0.828478
