16

N       0.154518   -1.160791   -0.336325
C       0.029134   -0.026534   -0.151655
C      -0.087720    1.401550    0.107272
N      -1.198983    1.949349   -0.179910
C      -1.499272    3.333258    0.119631
C      -0.475470    4.379944   -0.380571
C       0.842434    4.337607    0.331576
C       1.480295    3.247044    0.763998
N       1.080885    1.913760    0.650096
H      -2.472968    3.551960   -0.329682
H      -1.617397    3.450740    1.205040
H      -0.342850    4.233545   -1.460010
H      -0.918595    5.375740   -0.264749
H       1.326117    5.284985    0.544815
H       2.435461    3.337276    1.269487
H       1.785293    1.225198    0.864871
