24

C       0.279454    1.518000    0.154115
C       0.039694    0.008512    0.238704
C      -1.343237   -0.395339   -0.274287
N      -1.491477   -1.851535   -0.235963
C      -2.019812   -2.453748    0.982959
C      -2.826191   -2.446211   -0.273496
C      -4.119141   -1.637886   -0.403376
C      -5.321132   -2.569291   -0.583455
O      -4.338671   -0.724208    0.668559
H       1.271683    1.784229    0.531018
H       0.211056    1.873792   -0.880097
H      -0.459922    2.072872    0.742382
H       0.800121   -0.531845   -0.336603
H       0.145342   -0.325801    1.278856
H      -2.124729    0.126682    0.296228
H      -1.446343   -0.084379   -1.322520
H      -1.531189   -3.363076    1.324676
H      -2.336688   -1.779438    1.777211
H      -2.853564   -3.364875   -0.859752
H      -4.039658   -0.993213   -1.287967
H      -5.411346   -3.254996    0.268323
H      -6.240535   -1.982500   -0.653706
H      -5.223958   -3.175556   -1.489313
H      -4.514307   -1.245798    1.459954
