15

C      -0.011342    1.483979    0.102147
C       1.378505    2.154100   -0.052222
C       2.177627    1.388205   -1.055272
C       1.963896    0.061328   -1.301331
O       2.858903   -0.370540   -2.177234
N       3.686945    0.790851   -2.489945
N       3.250821    1.760186   -1.813564
C       0.920029   -0.715032   -0.672581
C       0.001195   -0.029816    0.026706
H      -0.472942    1.807074    1.039850
H      -0.679009    1.842666   -0.696799
H       1.261684    3.201423   -0.342436
H       1.903453    2.153530    0.913527
H       0.898994   -1.792713   -0.778219
H      -0.816093   -0.558714    0.507673
