21

C      -0.062579    1.588119    0.170955
C       0.033945    0.053233    0.050597
C       0.709736   -0.409524   -1.264052
C      -0.067371   -0.042403   -2.531599
C       0.593144   -0.619868   -3.800779
C      -0.124903   -0.276361   -5.022067
C      -0.737062    0.021699   -6.012716
C       0.740361   -0.506793    1.202597
C       1.342205   -0.958251    2.140554
H       0.933408    2.039901    0.127813
H      -0.668654    2.007220   -0.636411
H      -0.520276    1.870636    1.122241
H      -0.988888   -0.350825    0.056568
H       1.721432    0.014096   -1.307016
H       0.834966   -1.497821   -1.218818
H      -1.094970   -0.419907   -2.464489
H      -0.141974    1.044064   -2.642785
H       1.627206   -0.257076   -3.870619
H       0.662431   -1.712051   -3.711993
H      -1.268848    0.278039   -6.895094
H       1.862135   -1.362253    2.973508
