18

C       0.610370    0.287013    1.212778
C       0.000248   -0.013212   -0.138232
C       0.384020    0.811890   -1.292888
O       0.927796   -0.498993   -1.125739
C      -1.345494   -0.728337   -0.113150
C      -2.549717    0.014115   -0.621243
N      -1.989954   -1.093651   -1.387961
C      -1.516063   -1.698141    0.944402
C      -1.663999   -2.491317    1.835225
H       1.562768    0.806973    1.088057
H      -0.060528    0.914759    1.808412
H       0.784155   -0.637445    1.768358
H      -0.281011    0.941428   -2.146442
H       1.079749    1.636277   -1.140722
H      -3.519371   -0.183543   -0.174462
H      -2.391958    1.036779   -0.954361
H      -1.412304   -0.781138   -2.164208
H      -1.797180   -3.202415    2.612638
