19

C      -0.079534    1.246609   -0.232486
O      -0.036627   -0.161283   -0.151731
C      -1.286795   -0.743778    0.118949
C      -1.075211   -2.259050    0.215949
C      -2.392205   -3.066680   -0.006228
C      -1.883967   -3.289965   -1.452835
N      -0.530492   -2.874799   -1.013624
C      -0.308543   -2.582416    1.428684
N       0.256914   -2.848607    2.400546
H       0.934982    1.589196   -0.446129
H      -0.750105    1.586948   -1.036868
H      -0.416982    1.695060    0.713643
H      -1.716742   -0.357723    1.057573
H      -2.002944   -0.530006   -0.692676
H      -2.423572   -3.979729    0.587188
H      -3.320300   -2.509440    0.127751
H      -1.929180   -4.311650   -1.840486
H      -2.360812   -2.619360   -2.179418
H      -0.022146   -2.224320   -1.603389
