15

N      -0.089417    1.237175    0.280431
C      -0.018391    0.013782   -0.013483
O       1.126243   -0.658119   -0.352666
C       0.833895   -1.950864   -0.906427
C      -0.638028   -2.210803   -0.632942
C      -1.066575   -2.175446    0.819773
C      -0.108281   -2.289737    1.884884
N       0.662916   -2.411168    2.738087
C      -1.172342   -0.927860   -0.060315
H       0.826759    1.681653    0.205689
H       1.027808   -1.930437   -1.984655
H       1.502954   -2.677053   -0.435769
H      -1.200930   -2.828430   -1.320813
H      -2.018702   -2.647823    1.037594
H      -2.156456   -0.525931   -0.254227
