17

C       0.083152    1.654310    0.080065
C       0.020019    0.142161   -0.087139
C       0.725267   -0.499592   -1.299556
O       2.108190   -0.166983   -1.188519
C       1.639897   -1.325112   -0.464085
C       2.329096   -2.649085   -0.611194
O       1.607944   -3.661042    0.067203
C       0.949378   -0.772343    0.776503
O       0.967894   -1.087755    1.932643
H       1.095026    2.018100   -0.113779
H      -0.604962    2.156321   -0.607422
H      -0.194988    1.935156    1.100166
H      -1.004339   -0.233365    0.030454
H       0.332618   -0.731323   -2.282375
H       2.381116   -2.935655   -1.665921
H       3.363185   -2.560833   -0.243866
H       1.591326   -3.426941    1.002954
