13

N       0.004404    1.240930    0.221631
C      -0.023823    0.013147   -0.035226
O      -1.076596   -0.724353    0.454369
C      -1.097303   -2.043582    0.210630
C      -2.121531   -2.859564   -0.054870
N      -1.561649   -4.147810   -0.109664
C      -0.210456   -4.103891    0.105414
O       0.614418   -4.971758    0.121331
O       0.076758   -2.747571    0.319010
H       0.827964    1.668204   -0.197407
H       0.690978   -0.583761   -0.605548
H      -3.166676   -2.656344   -0.196872
H      -2.047983   -5.009745   -0.280730
