20

C       0.038582    1.487913   -0.112484
N      -0.057274    0.047105    0.045871
C      -1.435454   -0.468074    0.269980
C      -1.206455   -1.370986    1.474970
C      -0.240001   -0.649952    2.456476
O       0.421937   -1.909455    2.805010
C       0.227917   -1.994153    1.348319
C       0.686627   -3.214659    0.617213
C       0.655708   -0.508517    1.174049
H       1.087372    1.775503   -0.237146
H      -0.500180    1.796041   -1.014214
H      -0.373714    2.059417    0.740087
H      -2.140676    0.344638    0.494942
H      -1.812286   -1.004602   -0.609026
H      -2.018215   -1.979362    1.871999
H      -0.463042    0.045658    3.265274
H       0.136038   -4.100656    0.947946
H       0.528325   -3.084622   -0.457836
H       1.753694   -3.385139    0.790615
H       1.705034   -0.229617    1.264949
