18

C      -0.028815    1.483143   -0.014554
C       1.500749    1.851812   -0.024571
C       2.016813    0.431778   -0.003262
C       3.361530   -0.253527    0.004069
O       2.934758   -1.641050    0.027398
C       1.513001   -1.561153    0.029954
C       1.065416   -0.400636    0.932422
N      -0.066461   -0.009619    0.009410
C       1.060459   -0.430035   -0.906721
H      -0.548725    1.872024    0.865518
H      -0.553495    1.843742   -0.903790
H       1.797314    2.406131   -0.920089
H       1.802089    2.434448    0.851157
H       3.964826   -0.068365   -0.892502
H       3.969632   -0.039856    0.891000
H       1.070206   -2.553819    0.047013
H       0.982905   -0.345167    2.019778
H       0.972083   -0.409340   -1.994834
