15

O       0.005286   -0.018249    0.011818
C       0.017534    1.191463   -0.012116
C       1.261472    1.980993    0.019431
C       1.248521    3.322106   -0.014213
C       2.527166    4.099709    0.036130
N       3.669949    3.210973   -0.138266
C       3.691831    1.840380   -0.027432
O       4.715015    1.187569   -0.050994
N       2.437787    1.258141    0.090199
H      -0.912101    1.793505   -0.058602
H       0.308332    3.857418   -0.058001
H       2.534652    4.865072   -0.753625
H       2.590769    4.651222    0.991008
H       4.591801    3.615696   -0.167920
H       2.384230    0.250782    0.075889
