17

C      -0.036666    1.523580   -0.008661
N       1.238474    0.794378   -0.088217
C      -0.020217    0.036613    0.030104
C      -0.211641   -0.714886    1.290192
C       0.308833   -0.382254    2.699034
C       0.305207   -1.920805    3.010764
C      -0.216603   -2.160814    1.588241
O      -1.445868   -1.430582    1.456271
H      -0.179957    2.084568    0.910366
H      -0.429075    2.004431   -0.900534
H       1.570278    0.767205   -1.048227
H      -0.396822   -0.482049   -0.848965
H       1.313002    0.044230    2.684356
H      -0.356003    0.242835    3.299776
H       1.310198   -2.316948    3.173129
H      -0.357673   -2.262236    3.809218
H      -0.085387   -3.022277    0.942416
