19

O      -0.031939    1.319958    0.135273
C       0.025200   -0.051642   -0.001267
C      -0.623191   -0.908426   -1.088313
C      -0.386043   -2.097523   -0.107886
C      -0.284229   -1.046502    1.075810
C       1.163736   -0.887432    0.633758
C       1.145306   -2.231619   -0.052235
C       1.907864   -3.449924    0.359130
C       2.085411   -2.859461   -1.032851
H       0.669771    1.707515   -0.399602
H      -1.685468   -0.667483   -1.187191
H      -0.153834   -0.971884   -2.077100
H      -1.029621   -2.974680   -0.129644
H      -0.755911   -0.960322    2.043169
H       1.966401   -0.399833    1.173684
H       2.722873   -3.338149    1.067467
H       1.372211   -4.390486    0.445578
H       1.668899   -3.407686   -1.872621
H       3.020449   -2.353988   -1.253510
