18

C       0.076700    1.541624   -0.636742
C       0.105426    0.064297   -1.037890
C       1.483294   -0.569190   -0.820733
O       1.904396   -0.476122    0.538526
C       1.589168   -2.029696   -1.253611
O       0.401147   -2.796223   -1.469810
C       1.264316   -2.583999   -2.586877
C       0.768877   -1.776411   -3.680950
N       0.406853   -1.159954   -4.589464
H       0.386658    1.673658    0.403034
H       0.754336    2.131868   -1.262957
H      -0.929145    1.954634   -0.752765
H      -0.632421   -0.507689   -0.460323
H      -0.186338   -0.041144   -2.086597
H       2.241431   -0.003827   -1.378093
H       1.200543   -0.838518    1.089345
H       2.365922   -2.564704   -0.705098
H       1.807664   -3.466916   -2.921194
