19

C       0.026915    1.565417    0.047030
C       0.094617    0.036955    0.092312
C       0.565648   -0.561601   -1.239858
N       0.647447   -2.002819   -1.232481
C       1.551693   -2.944163   -0.563721
C       0.790349   -4.088678   -1.291484
C      -0.061528   -2.960031   -1.919391
O      -0.976064   -2.880055   -2.698060
H       1.007632    2.000572   -0.175231
H      -0.670012    1.908298   -0.725426
H      -0.309028    1.974881    1.004012
H       0.775087   -0.279659    0.892851
H      -0.889566   -0.379421    0.336177
H      -0.134793   -0.302055   -2.041112
H       1.543905   -0.138885   -1.512081
H       2.603389   -2.825932   -0.849468
H       1.472672   -2.947828    0.528581
H       1.377061   -4.662493   -2.010820
H       0.232797   -4.770089   -0.646590
