23

C       1.238765    0.637108    1.037494
C       0.129918    0.369362    0.014591
C       0.652820   -0.321616   -1.243120
C       1.099035   -1.793716   -1.157699
C      -0.064514   -2.703020   -0.880900
C       0.128858   -2.177725   -2.277915
C      -0.334157   -0.721556   -2.409307
C      -1.819040   -0.424395   -2.300582
O      -1.989951    0.982699   -2.439501
H       1.719269   -0.295323    1.353853
H       2.017128    1.283883    0.616662
H       0.846668    1.129084    1.933215
H      -0.651697   -0.240159    0.484739
H      -0.352770    1.308390   -0.278551
H       1.459622    0.288675   -1.662663
H       2.119692   -2.128415   -1.015597
H       0.193087   -3.749514   -0.750673
H      -0.897992   -2.381900   -0.262629
H       0.294841   -2.849079   -3.112349
H       0.017398   -0.283495   -3.348141
H      -2.353629   -0.969920   -3.096144
H      -2.222569   -0.775966   -1.339919
H      -2.920131    1.187420   -2.307230
