19

C      -1.479411   -2.209994    0.755020
C      -0.664517   -1.105431    0.076742
C       0.411906   -0.423658    0.974410
C      -0.286710    0.353171    2.110012
N      -0.326054   -0.253228    3.317550
O      -0.797744    1.431676    1.865685
C       1.473456   -1.436574    1.394841
N       2.555965   -1.495891    0.575613
O       1.369417   -2.181019    2.362759
H      -2.044574   -1.820862    1.606526
H      -2.194222   -2.637131    0.045185
H      -0.840066   -3.017068    1.122878
H      -0.161663   -1.507197   -0.810994
H      -1.328134   -0.305613   -0.266448
H       0.880806    0.356646    0.367338
H       0.149911   -1.137533    3.446878
H      -0.778877    0.227420    4.077154
H       2.670479   -0.886356   -0.214372
H       3.272178   -2.174869    0.776935
