19

C       0.249873    1.605186    0.046101
C      -0.026594    0.098939   -0.031690
C       0.564606   -0.500686   -1.316969
C       0.173517   -1.957697   -1.556761
C       0.837899   -2.922555   -0.586580
O       0.385139   -2.859433    0.769138
C       0.505664   -1.719586    1.505989
N       0.392756   -0.496322    1.232072
H       1.328050    1.794985    0.080609
H      -0.164947    2.128917   -0.821105
H      -0.191190    2.022621    0.954214
H      -1.119053   -0.040042   -0.085620
H       0.225286    0.111312   -2.160906
H       1.659409   -0.410538   -1.286540
H      -0.916234   -2.077405   -1.503320
H       0.475586   -2.261145   -2.567062
H       0.646471   -3.957763   -0.881168
H       1.925860   -2.763570   -0.596398
H       0.692910   -2.005033    2.543161
