14

O       0.002288    1.441541   -0.077178
C       0.069475    0.081677   -0.030460
C       0.179643   -0.792096   -1.097521
C       0.295190   -1.340570   -2.513229
C       0.325750   -2.765434   -1.818590
N       0.209600   -2.024384   -0.555712
N       0.132037   -2.094384    0.768450
C       0.044748   -0.787332    1.096728
H      -0.067350    1.775611    0.822133
H      -0.567227   -1.175101   -3.162901
H       1.208956   -1.083544   -3.053725
H      -0.526365   -3.415387   -2.033082
H       1.260143   -3.322796   -1.922832
H      -0.033770   -0.502993    2.137200
