17

C      -0.024129    1.364563   -0.362370
O       1.310156    1.641966    0.103906
C       1.441826    0.318012    0.655719
C       0.063577   -0.117832    0.089865
C      -0.962893   -0.634135    1.037169
N      -1.600083   -1.777423    0.779783
N      -2.439258   -1.941431    1.819718
C      -2.359395   -0.942516    2.730924
C      -1.407170   -0.066988    2.259537
H      -0.779778    1.957979    0.168705
H      -0.129183    1.533554   -1.440497
H       2.315144   -0.211458    0.257060
H       1.499887    0.330504    1.751921
H       0.147798   -0.813036   -0.746044
H      -3.033551   -2.752352    1.842280
H      -2.970431   -0.933691    3.619732
H      -1.079261    0.847472    2.727016
