14

O      -0.181761    0.059797   -0.000557
C      -0.008237    1.257745    0.008106
C       1.297199    1.901294   -0.000897
C       2.581222    1.350723   -0.020110
C       3.494601    2.409048   -0.021203
C       2.762201    3.598775   -0.002491
N       1.434190    3.263997    0.009656
C       3.207944    4.984296    0.004607
O       4.367629    5.331124   -0.005494
H      -0.869239    1.967063    0.023967
H       2.789139    0.292447   -0.031721
H       4.571893    2.358110   -0.033837
H       0.670970    3.922702    0.024115
H       2.380362    5.732337    0.020517
