23

C      -0.128787    1.570603   -0.142726
C       0.069503    0.056652   -0.049356
C       0.956861   -0.548522   -1.164557
C       1.186667   -1.996249   -0.645306
C       1.985255   -1.253864    0.463954
C       2.399810   -0.257696   -0.659108
C       0.858303   -0.499221    1.204745
C       1.343231    0.511940    2.234086
O       0.207186    0.989977    2.949123
H       0.819416    2.110381   -0.236575
H      -0.730187    1.818887   -1.023996
H      -0.641402    1.950375    0.744310
H      -0.921111   -0.410651   -0.080100
H       0.657414   -0.345516   -2.194343
H       0.311272   -2.581246   -0.344720
H       1.829151   -2.587318   -1.302516
H       2.724989   -1.767508    1.081121
H       3.163055   -0.675342   -1.320106
H       2.670355    0.765679   -0.387448
H       0.230447   -1.210226    1.753562
H       2.050382    0.013657    2.917575
H       1.884454    1.341889    1.757320
H       0.504246    1.663413    3.568034
