20

C       0.100583    1.620167    0.005586
C       0.098715    0.090564    0.033316
C       0.730782   -0.596864   -1.174142
C       2.235636   -0.569247   -1.285097
C       1.550731   -1.780332   -0.701441
C       1.480085   -1.846526    0.816935
C       0.843771   -0.528469    1.209189
N       0.901027    0.065345    2.332411
O       1.615904   -0.688182    3.282372
H       1.118801    2.005872   -0.101876
H      -0.495021    1.991083   -0.834505
H      -0.314780    2.023377    0.932280
H      -0.946044   -0.251928    0.095709
H       0.149897   -0.650400   -2.088099
H       2.664369   -0.662445   -2.276664
H       2.800207    0.076852   -0.618105
H       1.569255   -2.707955   -1.261487
H       0.845893   -2.679658    1.148044
H       2.448511   -1.974919    1.309496
H       1.610624   -0.103764    4.047736
