23

C       0.026824    1.663818   -0.024649
C       0.052229    0.134449    0.072511
C       0.640837   -0.503754   -1.191899
C       0.694306   -2.059091   -1.222460
C       1.460955   -2.643495   -0.017046
C      -0.735701   -2.668981   -1.256238
O      -1.498147   -2.238569   -2.362841
C       1.359100   -2.464248   -2.467842
C       1.855822   -2.801259   -3.511323
H       1.035764    2.068637   -0.161460
H      -0.579983    1.995282   -0.874164
H      -0.392499    2.112540    0.881140
H       0.634796   -0.159087    0.953608
H      -0.968463   -0.229035    0.239440
H       0.057142   -0.179999   -2.059863
H       1.660207   -0.127934   -1.341714
H       0.925361   -2.446300    0.915933
H       1.577683   -3.725874   -0.120508
H       2.458770   -2.202402    0.059988
H      -0.647502   -3.765921   -1.227332
H      -1.285917   -2.357882   -0.363397
H      -1.004001   -2.483385   -3.155216
H       2.322104   -3.094948   -4.419412
