22

C      -0.063367    1.616158   -0.082454
C       0.067154    0.101303   -0.005429
N       1.143966   -0.484899   -0.816614
C       1.364732   -0.540025   -2.238411
C       1.769674   -1.128704    0.218600
O       2.733932   -1.852552    0.257202
C       0.749487   -0.576005    1.247803
C       1.367557    0.348869    2.293796
C      -0.089455   -1.677021    1.897118
H       0.892809    2.115153    0.095973
H      -0.424560    1.922608   -1.070110
H      -0.786121    1.976811    0.656604
H      -0.906049   -0.359121   -0.228658
H       1.522049    0.457920   -2.664188
H       2.262088   -1.139606   -2.409876
H       0.521325   -1.010197   -2.760900
H       1.997767    1.121286    1.845220
H       0.594249    0.842081    2.893283
H       1.997770   -0.234443    2.972160
H       0.534735   -2.293074    2.551790
H      -0.897256   -1.249500    2.501684
H      -0.538083   -2.336441    1.147137
