15

N       0.071951    1.192385   -0.250120
C       0.035122   -0.037150   -0.027528
O       1.038879   -0.952342    0.253231
C       0.093781   -2.060862    0.356089
C      -1.037718   -1.087174    0.019590
N      -2.358112   -0.939284    0.575681
C      -2.233566   -1.293600   -0.855737
C      -2.658652   -0.227416   -1.814912
O      -3.034183   -0.468665   -2.934035
H       1.020297    1.566372   -0.201327
H       0.312466   -2.838909   -0.379021
H       0.080843   -2.474706    1.368659
H      -2.620069   -1.754314    1.125568
H      -2.436746   -2.312289   -1.178761
H      -2.594267    0.800002   -1.405419
