19

C      -0.021968    1.606090    0.130356
C      -0.001843    0.085591    0.074833
C       0.910386   -0.614115   -1.004502
C       1.656921   -1.311074    0.143479
C       2.355046   -2.644886    0.138437
C       3.507517   -2.675087   -0.759083
C       4.444568   -2.685446   -1.510694
O       2.192937   -0.271620    0.972644
C       0.817721   -0.647591    1.154347
H       0.995372    1.993195    0.235233
H      -0.457145    2.027529   -0.781867
H      -0.614526    1.964849    0.979272
H      -1.017895   -0.319552    0.026888
H       0.355129   -1.299979   -1.648947
H       1.533010    0.041398   -1.617713
H       2.669030   -2.875766    1.163098
H       1.639842   -3.422748   -0.160079
H       5.279606   -2.696801   -2.166348
H       0.522789   -0.956933    2.151819
