21

C       0.043426    1.516285   -0.297546
C       1.465949    1.602926    0.349457
C       1.434311    0.071419    0.617908
C       0.846564   -0.398994    1.977174
C      -0.574342   -0.485558    1.330889
C       0.016444   -0.014939   -0.026986
C       0.173878   -1.032824   -1.148315
O       1.328403   -1.802143   -0.785251
C       2.276670   -0.904758   -0.191885
H      -0.737537    2.087982    0.210793
H       0.017814    1.778215   -1.359103
H       2.253973    1.914409   -0.342036
H       1.535713    2.226439    1.244731
H       1.237299   -1.363717    2.311673
H       0.950627    0.316915    2.797305
H      -0.983367   -1.499016    1.301588
H      -1.330546    0.177914    1.759758
H      -0.656558   -1.736781   -1.257228
H       0.334519   -0.528635   -2.116000
H       2.848342   -0.375539   -0.972619
H       2.970858   -1.515860    0.392664
