15

O       0.354568    1.161843    0.574505
C       0.022944   -0.087216    0.040555
C      -1.502585   -0.312258   -0.128935
C      -1.668222   -0.959893   -1.501138
O      -2.679323   -1.111747   -2.136198
C      -0.285199   -1.311933   -2.069529
O      -0.235263   -1.403784   -3.448299
C       0.563222   -0.243774   -1.392197
O       1.413420    0.465155   -1.859837
H       1.042095    1.525241   -0.004938
H       0.449236   -0.897473    0.655640
H      -1.947273   -0.926142    0.658891
H      -2.022964    0.650979   -0.128156
H      -0.001465   -2.264910   -1.573614
H      -1.157389   -1.440209   -3.745977
