23

C      -0.023691    1.466447   -0.498892
C       0.012221    0.006836   -0.037784
C      -1.385568   -0.609645    0.104533
O      -2.119823   -0.496622   -1.115848
C      -1.373852   -2.069438    0.605494
C      -0.756799   -2.225332    2.004767
C      -2.785083   -2.626206    0.612171
C      -3.319526   -3.471318   -0.455915
O      -2.905446   -4.041763    0.789004
H       0.987148    1.859572   -0.642380
H      -0.570607    1.562642   -1.439939
H      -0.526222    2.098849    0.241345
H       0.589206   -0.598643   -0.753128
H       0.541568   -0.065358    0.918130
H      -1.964079   -0.005973    0.818397
H      -1.648408   -1.004076   -1.786363
H      -0.784414   -2.672151   -0.101872
H      -1.256580   -1.572607    2.730359
H      -0.872973   -3.257632    2.345161
H       0.309099   -1.985056    2.013734
H      -3.500644   -2.047903    1.201815
H      -4.390653   -3.493433   -0.650914
H      -2.690638   -3.716382   -1.311418
