16

C       0.132196    1.451749    0.048097
C      -0.034184   -0.019832    0.003254
C      -1.125781   -0.840876   -0.056882
C      -0.624897   -2.200680   -0.060742
C       0.727612   -2.091369   -0.009980
N       1.772965   -3.001307   -0.070963
O       1.105128   -0.785860    0.028291
C      -2.477545   -0.430334   -0.097153
C      -3.633950   -0.092782   -0.131157
H       0.718030    1.820541   -0.802408
H      -0.852660    1.922499    0.019003
H       0.643556    1.776290    0.962509
H      -1.210765   -3.103866   -0.095170
H       1.487375   -3.937128    0.181991
H       2.574564   -2.712394    0.476110
H      -4.651447    0.207686   -0.161573
