15

C       0.009613    1.496674    0.089225
C       1.301944    0.738704    0.025567
O       1.989324    0.426212    1.252427
C       1.136571   -0.402499    1.892006
C      -0.018399   -0.755924    1.243038
C      -0.653583   -1.628103    2.150912
N       0.062127   -1.784902    3.267059
N       1.174510   -1.000141    3.091940
C      -0.026353   -0.023282   -0.048943
H      -0.303375    1.926379    1.034196
H      -0.229217    2.088588   -0.788288
H       1.998420    0.864783   -0.792667
H      -1.591256   -2.155969    2.056613
H       1.874882   -0.963556    3.811335
H      -0.379063   -0.473089   -0.969648
