23

C      -0.018088    1.599438   -0.019973
C       0.085780    0.070204    0.042110
C       0.726804   -0.397218    1.353914
C      -1.308585   -0.558624   -0.115806
O      -2.129276   -0.123215    0.956095
O       0.779216   -0.458878   -1.099213
C       2.151064   -0.140127   -1.264168
C       2.529396   -0.640749   -2.651403
O       1.741706   -0.026320   -3.651329
H       0.939256    2.085071    0.187586
H      -0.358604    1.914630   -1.011272
H      -0.742337    1.945000    0.721126
H       0.063740   -0.159517    2.188757
H       0.884144   -1.480306    1.334391
H       1.689101    0.090976    1.531507
H      -1.718837   -0.253893   -1.090119
H      -1.196129   -1.652443   -0.124510
H      -2.996579   -0.523838    0.853662
H       2.315802    0.944597   -1.210599
H       2.774680   -0.626107   -0.499411
H       3.575800   -0.394924   -2.860836
H       2.427147   -1.737732   -2.675778
H       0.833048   -0.098313   -3.335026
