20

C      -0.472306    1.296975   -0.120257
N      -0.183465   -0.120872   -0.097236
C       0.661596   -0.621388   -0.895687
C       1.486706    0.047435   -1.970744
O       0.933196   -1.951929   -0.852032
C       0.269276   -2.691347    0.160644
C      -1.210145   -3.041482   -0.071544
O      -0.911323   -4.456574   -0.025325
C       0.507230   -4.202162    0.032817
H       0.097308    1.881107   -0.855717
H      -1.539742    1.448270   -0.320697
H      -0.276715    1.722939    0.870974
H       2.215960    0.732958   -1.527889
H       2.023011   -0.705576   -2.547894
H       0.854088    0.629498   -2.645911
H       0.477295   -2.250812    1.136918
H      -1.913300   -2.737409    0.709573
H      -1.588547   -2.728189   -1.051992
H       1.022774   -4.481083   -0.895006
H       0.984021   -4.702419    0.883086
