12

N       0.032097    1.270113    0.151568
C      -0.048855   -0.081430    0.048134
N      -1.125828   -0.811359    0.003630
N      -0.577799   -2.080047    0.004962
N      -1.037451   -3.346014   -0.044591
C       0.123111   -4.010979   -0.045841
N       1.278872   -3.262992   -0.006437
C       0.753490   -2.064799    0.024588
O       1.150035   -0.762593    0.058929
H       0.861991    1.688872   -0.241114
H      -0.827695    1.755505   -0.056562
H       0.141966   -5.089405   -0.074759
