18

C      -0.050316    1.438119    0.011215
C       0.001820   -0.069128    0.003526
O      -1.175959   -0.573669   -0.561810
C      -1.116601   -1.938901   -0.934442
C      -0.011615   -2.694765   -0.243612
C       0.631144   -2.256786    1.015643
C       0.668560   -0.729653    1.179026
C       1.357587   -0.694294   -0.185321
N       1.386217   -2.207661   -0.288960
H       0.843117    1.858698    0.480562
H      -0.122911    1.821067   -1.010987
H      -0.928352    1.779660    0.567929
H      -2.087217   -2.388152   -0.690663
H      -0.976763   -2.023235   -2.024923
H      -0.051800   -3.769577   -0.408614
H       0.926393   -2.946040    1.800246
H       0.916842   -0.224626    2.103718
H       2.231647   -0.156607   -0.534673
