23

C       0.518691    0.555782   -0.514987
O      -0.048317   -0.540669    0.164923
C      -1.447882   -0.439053    0.322301
C      -2.273678   -0.832042   -0.940929
C      -2.539075   -2.235256   -0.308228
C      -3.987277   -2.712700   -0.309257
C      -1.595196   -3.284225   -0.910315
O      -1.541500   -4.492096   -0.166136
C      -1.992108   -1.688645    1.047825
H       1.596896    0.385540   -0.564236
H       0.131248    0.658963   -1.539858
H       0.330785    1.501243    0.018112
H      -1.700853    0.534749    0.766677
H      -3.185227   -0.237700   -1.052431
H      -1.730653   -0.819336   -1.891357
H      -4.332252   -2.942684   -1.325074
H      -4.112268   -3.613312    0.304213
H      -4.655429   -1.950009    0.104085
H      -1.881650   -3.472164   -1.959166
H      -0.574757   -2.890811   -0.910440
H      -2.390258   -4.935456   -0.255232
H      -1.238471   -2.303339    1.543607
H      -2.783506   -1.444929    1.761780
