20

C      -0.089105    1.582276   -0.080590
C       0.035586    0.067407    0.001879
O      -1.235162   -0.548609   -0.147771
C       1.120419   -0.632545   -0.840497
C       2.484943   -0.330199   -0.365867
N       1.702573   -1.347269    0.367147
C       0.743393   -0.576621    1.203685
C       1.068969   -0.025421    2.557395
C       0.094062   -1.177068    2.398102
H       0.872393    2.081645    0.061303
H      -0.479647    1.883289   -1.060975
H      -0.783643    1.943762    0.684490
H      -1.638145   -0.200227   -0.950975
H       0.914565   -1.166423   -1.763382
H       3.313801   -0.754991   -0.924689
H       2.705646    0.615007    0.124008
H       2.052563   -0.246546    2.958989
H       0.678172    0.949690    2.830775
H      -0.964002   -0.989787    2.540952
H       0.431233   -2.165940    2.688645
