15

O       0.152002    1.394215   -0.068258
C       0.100209   -0.018000   -0.047765
C      -1.342027   -0.536039    0.133545
C      -1.428291   -2.014420    0.177829
C      -1.750832   -2.904895    1.113774
O      -1.635339   -4.181070    0.593938
C      -1.224239   -4.055261   -0.703807
O      -1.018105   -4.944347   -1.463557
O      -1.092065   -2.718524   -0.973794
H      -0.212463    1.697208   -0.905909
H       0.542685   -0.460465   -0.950963
H       0.708755   -0.334981    0.804974
H      -1.755177   -0.127510    1.060448
H      -1.962008   -0.161235   -0.692031
H      -2.071013   -2.815838    2.136447
