19

C       0.055753    1.387490   -0.301337
C       1.377516    0.700619   -0.047897
C       2.225341    0.919644    1.152852
C       1.927281    1.364266    2.379935
C       0.633922    1.756682    2.955487
C      -0.507783    1.055802    2.962082
C      -0.748005   -0.278055    2.395386
C      -0.496717   -0.751389    1.168572
C       0.072200   -0.100698   -0.040357
H      -0.335843    2.032659    0.471797
H      -0.151541    1.715633   -1.313947
H       1.972316    0.525317   -0.939151
H       3.276605    0.704762    0.970782
H       2.769202    1.503651    3.058210
H       0.644167    2.699480    3.502721
H      -1.348522    1.476191    3.514232
H      -1.247621   -0.962216    3.081406
H      -0.782389   -1.786991    0.994222
H      -0.048136   -0.715010   -0.927483
