19

C      -0.039112    1.537041   -0.025086
C      -0.012238    0.007696   -0.022716
C       0.724168   -0.559378    1.208199
C       0.770089   -2.013522    1.245034
C       0.803285   -3.220667    1.267318
C       0.849646   -4.669969    1.305544
O       1.384360   -5.288440    2.195280
C       0.160930   -5.336268    0.118671
O       0.254177   -6.728943    0.239609
H       0.974577    1.952604   -0.035977
H      -0.564996    1.919448   -0.904642
H      -0.547924    1.927255    0.863295
H      -1.033613   -0.388463   -0.037660
H       0.477261   -0.363302   -0.929978
H       1.751145   -0.170419    1.236397
H       0.243771   -0.195492    2.126658
H      -0.880917   -4.971429    0.100411
H       0.641374   -4.947365   -0.796130
H      -0.185166   -7.123678   -0.519071
