20

C      -0.037439    1.462545    0.199700
C       1.454396    1.613359   -0.249186
C       1.387831    0.173062   -0.738359
C       2.376128   -0.942771   -1.062367
C       1.323876   -1.435152   -2.081167
C       0.061443   -2.113191   -1.498277
C      -0.502815   -0.699996   -1.221532
C       0.073057   -0.092391    0.052780
N       0.626929   -0.069003   -2.058236
H      -0.268545    1.819285    1.204940
H      -0.746215    1.909011   -0.501623
H       1.692776    2.374701   -0.996227
H       2.125192    1.726712    0.609216
H       3.266979   -0.568340   -1.577633
H       2.685337   -1.608408   -0.251332
H       1.688546   -1.807637   -3.040504
H      -0.504790   -2.631795   -2.275960
H       0.181960   -2.788964   -0.645372
H      -1.541629   -0.497273   -1.498407
H       0.024526   -0.659834    0.985513
