18

C      -0.026309    1.722658    0.667117
C      -0.082877    0.286617    0.117346
C       0.690642   -0.650459    1.055369
C       2.186471   -0.759750    0.829366
O       0.129963   -1.251702    1.943090
C      -1.536388   -0.181497   -0.077627
C      -1.738827   -1.599849   -0.572662
O      -2.464044    0.561700    0.134479
H       1.003898    2.084140    0.728932
H      -0.594812    2.391443    0.018550
H      -0.475281    1.764837    1.662205
H       0.402363    0.259156   -0.869047
H       2.646437    0.227944    0.724833
H       2.649228   -1.305062    1.652608
H       2.372003   -1.296002   -0.109433
H      -1.038817   -1.848504   -1.377480
H      -1.547715   -2.290802    0.254339
H      -2.766160   -1.724701   -0.916671
