20

C      -0.014137    1.483091   -0.075910
N      -0.015770    0.027141    0.031877
C       0.690139   -0.455164    1.215612
C       2.202223   -0.182605    1.160611
C       2.947690   -1.006112    2.187777
O       3.681075   -0.559830    3.030329
C      -1.366456   -0.500912   -0.067332
C      -1.895440   -0.400138   -1.491400
O      -3.056852   -0.286541   -1.779564
H       1.008027    1.861495   -0.144954
H      -0.539725    1.787680   -0.986012
H      -0.510384    1.975043    0.781232
H       0.276854   -0.027293    2.148776
H       0.533676   -1.539347    1.271525
H       2.561237   -0.480215    0.165435
H       2.448501    0.869090    1.322083
H       2.767031   -2.104908    2.110026
H      -1.344965   -1.574155    0.169389
H      -2.095387   -0.033880    0.618363
H      -1.095269   -0.471808   -2.263180
