19

C      -0.024992    1.572764   -0.000844
C       0.101072    0.069379    0.090544
O      -1.069232   -0.613620   -0.295597
C       1.364726   -0.709697   -0.213317
C       2.607948   -0.016865    0.279498
C       3.249699   -0.804226    1.404437
C       2.020203    0.019151    1.693802
O       2.056163    1.112584    2.547487
C       0.765335   -0.668474    1.220557
H       0.857895    2.081882    0.387510
H      -0.169156    1.882522   -1.044259
H      -0.894873    1.905744    0.573847
H      -1.242111   -0.396098   -1.218148
H       1.329709   -1.562473   -0.882168
H       3.141996    0.779086   -0.226172
H       3.221110   -1.890685    1.405156
H       4.166857   -0.368862    1.790364
H       2.115645    0.788726    3.452753
H       0.234308   -1.465302    1.729210
