17

O      -0.043206    1.448378   -0.074625
C       0.033728    0.044359    0.007930
C       0.027545   -0.621702    1.408104
C      -1.470268   -0.227831    1.553128
O      -2.176112   -1.214630    2.292108
C      -1.647715   -2.429595    1.759897
C      -0.644028   -1.881794    0.739894
O       0.056151   -2.775668   -0.063568
C      -1.330835   -0.659599    0.059168
H       0.849592    1.802441   -0.022048
H       0.749327   -0.372917   -0.707031
H       0.796857   -0.614956    2.182332
H      -1.777240    0.774255    1.830818
H      -1.172787   -3.024757    2.552386
H      -2.437152   -3.029700    1.290776
H       0.598537   -3.336252    0.501863
H      -2.107528   -0.690150   -0.704606
