19

C       0.017425    1.528719    0.049587
C       0.053271    0.012291    0.029675
C      -1.175301   -0.624046   -0.599537
C       1.320912   -0.752480   -0.169577
O       2.455872   -0.011345    0.352654
C       1.928061   -0.109797    1.636139
O       2.437249    0.235189    2.652949
C       0.668558   -0.817965    1.197614
C      -0.019392   -1.871556    2.017680
H       0.943963    1.959403    0.431961
H      -0.138226    1.915447   -0.963762
H      -0.810513    1.884071    0.672096
H      -1.345125   -0.194528   -1.592305
H      -1.071495   -1.706177   -0.719563
H      -2.070788   -0.435469    0.002205
H       1.533420   -1.515740   -0.906660
H      -0.419388   -1.429211    2.936120
H      -0.850668   -2.332921    1.480646
H       0.677860   -2.663071    2.310369
