14

C       0.026709    1.402867   -0.001312
O       1.304005    1.933716   -0.037470
C       2.063844    1.684176    1.158631
C       1.879712    0.243889    1.521952
C       0.910627   -0.478680    0.892376
O       0.907236   -1.753010    1.259314
N       1.946455   -1.923428    2.210538
C       2.492555   -0.736102    2.341045
O       0.020297   -0.052074    0.003897
H      -0.529492    1.726346    0.891161
H      -0.485175    1.690850   -0.918207
H       3.097657    1.929284    0.900345
H       1.741991    2.372145    1.955099
H       3.322548   -0.629655    3.026597
