25

C      -0.015592    1.595653   -0.004023
C      -0.045225    0.065761    0.035783
C       0.697351   -0.524020    1.231273
C       0.586745   -2.050735    1.320150
C       1.464840   -2.598269    2.456344
C       2.908071   -2.058983    2.373070
C       3.717581   -2.685732    1.229198
C       2.842229   -0.530300    2.236666
O       2.063993   -0.130336    1.121509
H       1.015097    1.957723   -0.022616
H      -0.532112    1.977614   -0.889850
H      -0.505894    2.023151    0.878001
H      -1.081497   -0.292947    0.066280
H       0.402661   -0.341242   -0.879352
H       0.283792   -0.088739    2.161711
H      -0.460314   -2.334010    1.479258
H       0.890343   -2.481680    0.358453
H       1.030259   -2.293415    3.417984
H       1.464375   -3.694147    2.447722
H       3.416518   -2.284532    3.319884
H       3.319070   -2.392173    0.254285
H       4.762204   -2.358641    1.267954
H       3.707143   -3.779080    1.288353
H       2.426797   -0.090746    3.160328
H       3.838737   -0.103810    2.080704
