14

C      -0.052034   -1.213768    0.308117
C      -0.006367   -0.033732    0.092023
C       0.034746    1.405599   -0.154888
N       1.372855    1.972716   -0.064754
C       2.184995    2.006142    1.049614
C       3.325179    2.650472    0.650304
N       3.239700    3.014552   -0.674230
C       2.062087    2.592118   -1.068606
H      -0.086787   -2.259505    0.491717
H      -0.345223    1.625767   -1.157950
H      -0.627788    1.920615    0.551886
H       1.877668    1.567673    1.984443
H       4.201865    2.873246    1.239319
H       1.643446    2.700708   -2.058886
