20

C      -0.239585   -1.255144    0.306909
C      -0.133035   -0.061331    0.209622
C      -0.029854    1.363743    0.053552
N       0.590760    2.134989    1.158903
C       1.283308    2.067586   -0.132899
C       2.595678    1.342233   -0.174838
C       3.195128    0.969569   -1.561514
C       4.598757    1.337344   -1.009244
C       3.900184    2.139223    0.122246
H      -0.330831   -2.308383    0.405469
H      -0.882642    1.818511   -0.446803
H       0.104211    3.021940    1.262149
H       1.235724    2.952826   -0.769172
H       2.535811    0.459729    0.467011
H       3.030206   -0.046493   -1.926688
H       2.871712    1.673183   -2.336469
H       5.121559    0.459672   -0.618499
H       5.279188    1.878644   -1.670591
H       3.790857    3.196529   -0.143204
H       4.311069    2.076864    1.132206
