12

O      -0.063936    0.006348    0.000318
C      -0.007611    1.215016    0.008402
C       1.248061    1.970613   -0.000016
C       2.521284    1.479546   -0.018172
O       3.405282    2.471631   -0.020603
N       2.738774    3.696122   -0.003682
C       1.454769    3.392639    0.008509
C       0.462072    4.403226    0.027450
C      -0.411181    5.229344    0.043704
H      -0.922557    1.841636    0.024035
H       2.913499    0.474482   -0.030297
H      -1.172148    5.971052    0.058261
