14

C      -0.399590    1.315331   -0.539235
N      -1.013886    0.012127   -0.395577
C      -1.109955   -0.591745    0.807961
O      -0.719000   -0.154727    1.875499
N      -1.737613   -1.866963    0.787892
C      -2.263711   -2.590372   -0.249734
N      -2.271697   -2.195372   -1.464745
H       0.469655    1.271498   -1.205277
H      -1.109941    2.044651   -0.944938
H      -0.074328    1.647734    0.446939
H      -1.391904   -0.489198   -1.195852
H      -1.779646   -2.265895    1.712193
H      -2.674990   -3.546278    0.092292
H      -2.709035   -2.884154   -2.069011
