18

C      -0.546173    1.391237    0.516964
N      -0.976129    0.009369    0.572941
C      -1.024415   -0.785742   -0.530559
O      -0.698282   -0.421094   -1.648711
C      -1.502197   -2.213090   -0.273078
C      -0.660178   -3.159488    0.673819
C      -1.924597   -3.367594    1.514208
O      -2.345552   -2.077031    1.986178
C      -2.710193   -2.470333    0.652070
H       0.298714    1.571906    1.191088
H      -0.236381    1.598151   -0.508038
H      -1.358072    2.076061    0.788704
H      -1.300859   -0.386637    1.443799
H      -1.645076   -2.675759   -1.249836
H      -0.325042   -4.059514    0.155135
H       0.180043   -2.706116    1.203691
H      -2.225027   -4.220895    2.110032
H      -3.766054   -2.448814    0.409959
