17

C      -0.037113    1.539175    0.059613
C       0.040037    0.030737    0.037363
C       1.330082   -0.683738   -0.228508
C       0.726812   -0.710259    1.174628
O       1.291057    0.081309    2.173358
C       0.102754   -2.001448    1.602488
O      -0.468370   -2.743069    0.826467
C       0.240048   -2.338788    3.011471
C       0.355283   -2.659268    4.166302
H       0.861187    1.973860    0.502740
H      -0.144822    1.927501   -0.958635
H      -0.897732    1.880910    0.643206
H      -0.845003   -0.485201   -0.323533
H       1.305963   -1.611371   -0.788794
H       2.228073   -0.082614   -0.326424
H       2.072252   -0.366325    2.516375
H       0.444056   -2.946461    5.185992
