15

C      -0.037274    1.547852    0.007825
C      -0.041678    0.011629   -0.004388
N       0.553327   -0.483208    1.249315
C      -1.497094   -0.534637   -0.038255
O      -2.201629   -0.126668    1.105243
C       0.681946   -0.485669   -1.193944
N       1.251864   -0.908398   -2.107169
H       0.980620    1.935310    0.109217
H      -0.459312    1.938858   -0.920749
H      -0.644126    1.894083    0.845947
H       0.764179   -1.474735    1.174414
H       1.430371   -0.008771    1.440289
H      -2.021936   -0.145303   -0.915241
H      -1.455960   -1.632282   -0.130496
H      -1.607485   -0.303384    1.849144
