20

C      -1.396555    0.780744    0.793897
C      -0.115076    0.246294    0.139980
C       0.762775   -0.445394    1.162077
C       0.722404   -1.875400    1.527019
C       0.479028   -2.781534    0.322603
C       1.767408   -2.155722   -0.292818
C       1.751069   -1.555478   -1.613699
C       1.766441   -1.094370   -2.724628
N       1.980484   -1.252595    0.912456
H      -1.167598    1.481096    1.604686
H      -2.017997    1.308056    0.064150
H      -1.993800   -0.033022    1.218813
H      -0.373382   -0.420452   -0.685103
H       0.448234    1.073977   -0.306943
H       0.973193    0.199221    2.016133
H       0.715584   -2.217200    2.557271
H       0.596786   -3.844522    0.536216
H      -0.457576   -2.632079   -0.220012
H       2.583481   -2.883816   -0.259568
H       1.775730   -0.675136   -3.700378
