18

C       0.020260    1.429177   -0.112704
N      -0.093189   -0.022800   -0.122611
C       0.541304   -0.678756   -0.973700
O       1.395225   -0.260931   -2.007058
C       1.467435   -1.630135   -2.515808
C       1.397989   -1.825466   -3.990325
C       2.150120   -2.464135   -1.475596
C       0.655057   -2.126419   -1.344390
O      -0.339474   -3.070378   -1.308641
H       0.603117    1.836947   -0.946593
H      -0.984279    1.864636   -0.134746
H       0.485105    1.745641    0.827813
H       2.300600   -1.441238   -4.477120
H       1.311972   -2.890668   -4.221523
H       0.531032   -1.305901   -4.408346
H       2.316750   -3.500980   -1.754394
H       2.891856   -2.023653   -0.816322
H      -0.376875   -3.440678   -0.419338
