20

C       0.018274    1.503958   -0.181578
C      -0.054042   -0.010433    0.029844
N      -1.413689   -0.519818    0.055493
C      -2.173324   -0.836112    1.167001
N      -3.359163   -1.266113    0.958129
C      -3.516663   -1.272359   -0.503718
C      -2.188198   -0.765929   -1.080490
N      -1.749624   -0.567916   -2.254027
C      -2.609271   -0.863506   -3.382223
H       1.062302    1.831713   -0.203490
H      -0.447613    1.771313   -1.132629
H      -0.493088    2.040715    0.623570
H       0.469924   -0.523133   -0.782570
H       0.425400   -0.294971    0.972309
H      -1.735874   -0.713852    2.153459
H      -3.752787   -2.283077   -0.856528
H      -4.355041   -0.630706   -0.799153
H      -2.799815    0.054461   -3.952341
H      -2.095229   -1.552795   -4.062819
H      -3.581441   -1.307408   -3.122861
