14

O       0.019340   -0.047802    0.002945
C      -0.006498    1.161790    0.006115
C       1.199766    1.966294   -0.000067
C       2.243422    2.563116   -0.005567
N      -1.203497    1.883162    0.016274
C      -1.361906    3.268503    0.020889
C      -2.697353    3.535496    0.030906
C      -3.393171    2.278095    0.032532
C      -2.459481    1.285731    0.023423
H       3.168578    3.087076   -0.009765
H      -0.499767    3.912661    0.016527
H      -3.143218    4.518273    0.036548
H      -4.463029    2.135864    0.039638
H      -2.533897    0.212353    0.021157
