21

O       0.418655    1.258029   -0.330492
C       0.131919   -0.075627   -0.001312
C       0.244112   -0.417520    1.565984
C      -1.301272   -0.150290    1.614008
C      -2.747930   -0.771684    1.660376
C      -2.885976   -0.096131    0.211294
C      -1.373719   -0.511833    0.147501
C      -1.525634   -2.061453    0.139891
C      -2.546614   -2.246806    1.300984
H      -0.140232    1.832708    0.203749
H       0.742228   -0.680156   -0.677678
H       0.563195   -1.442898    1.754662
H       0.875444    0.264899    2.140875
H      -1.426671    0.933233    1.733898
H      -3.454752   -0.531870    2.457334
H      -3.596956   -0.553348   -0.485354
H      -3.047800    0.981962    0.267894
H      -1.915462   -2.398014   -0.825615
H      -0.588205   -2.594387    0.311521
H      -2.139472   -2.825454    2.134962
H      -3.476349   -2.727167    0.983022
