19

C       0.093280    1.471580    0.503511
C       0.045722    0.060950   -0.100575
C       0.968373   -0.900437    0.658307
C      -1.390774   -0.467162   -0.106890
O       0.372803    0.115247   -1.514540
C       1.675631    0.467374   -1.893113
C       2.587823   -0.690214   -2.012649
N       3.302713   -1.591138   -2.123360
H       1.109856    1.876210    0.538401
H      -0.532720    2.155350   -0.076703
H      -0.277802    1.452984    1.532624
H       0.627087   -1.000170    1.693174
H       0.962886   -1.890924    0.196196
H       2.002248   -0.544063    0.689101
H      -2.039637    0.202810   -0.677451
H      -1.427873   -1.456676   -0.569801
H      -1.777508   -0.543177    0.913246
H       1.606471    0.935011   -2.881904
H       2.139658    1.202377   -1.222984
