19

C      -0.016157    1.562803   -0.073097
C       0.036905    0.068438   -0.009632
C       0.049321   -0.901114   -1.163944
C       1.259350   -1.770280   -1.047310
C       1.756759   -1.672324    0.190214
C       0.819211   -0.830225    1.020275
C      -0.532840   -1.641245    1.197027
O      -1.319709   -1.171936    2.274881
C      -1.044544   -0.988293   -0.072335
H       0.969091    1.989453   -0.295705
H      -0.707960    1.893231   -0.855438
H      -0.361080    1.986751    0.876625
H      -0.311693   -0.570191   -2.132036
H       1.639481   -2.385121   -1.853724
H       2.593158   -2.228587    0.595538
H       1.204636   -0.382546    1.937114
H      -0.432266   -2.736284    1.223287
H      -0.896403   -1.460629    3.090243
H      -2.092108   -0.891868   -0.333089
