14

C       0.011113    1.461969   -0.036144
N      -0.001703    0.010483    0.005681
C       0.527870   -0.657262   -0.918138
O       1.149442    0.021302   -2.022091
C       1.704854   -0.694281   -2.990277
F       2.212795    0.103330   -3.894429
N       1.785755   -1.953791   -3.115403
C       1.200832   -2.672916   -2.075990
C       0.596642   -2.095992   -1.020046
H       1.033264    1.861793   -0.059372
H      -0.506877    1.849761   -0.923019
H      -0.491036    1.847192    0.853475
H       1.265665   -3.750391   -2.175667
H       0.146431   -2.666228   -0.219701
