20

C      -0.018410    1.403438    0.230858
C      -0.086314   -0.044896   -0.264704
C      -1.491091   -0.605133   -0.198300
C      -1.694507   -2.052423    0.031090
N      -1.878645   -1.065506    1.155863
C      -3.338289   -1.477818    1.210230
C      -4.151355   -1.396650   -0.069519
C      -3.168115   -2.514677    0.140647
O      -3.509920   -3.851761    0.174178
H       1.005486    1.787048    0.192102
H      -0.644582    2.062427   -0.381020
H      -0.370556    1.467952    1.264349
H       0.269837   -0.109828   -1.300865
H       0.574435   -0.675538    0.340242
H      -2.213632   -0.045274   -0.784938
H      -0.879857   -2.770654    0.065255
H      -3.802173   -1.516969    2.187130
H      -5.174784   -1.719219    0.101257
H      -4.058031   -0.620271   -0.821049
H      -3.733267   -4.129414   -0.721646
