18

C       0.104311    1.602495    0.018786
O       1.443419    1.505426   -0.510744
C       1.351288    0.067650   -0.617378
C       2.544823   -0.668969   -0.022493
N       2.952176   -0.375702    1.340215
C       2.215274   -0.026076    2.296407
O       0.866750    0.122207    2.431821
C      -0.015356   -0.528961    1.511448
C      -0.010645    0.066209    0.116879
H       0.078910    2.150021    0.966387
H      -0.585727    2.070217   -0.694617
H       1.265329   -0.237144   -1.672161
H       2.375913   -1.750104   -0.135289
H       3.410397   -0.443733   -0.658280
H       2.674142    0.236939    3.249993
H       0.225126   -1.599758    1.474370
H      -1.004939   -0.425353    1.966669
H      -0.831422   -0.377860   -0.452901
