14

O      -0.008144   -0.033140    0.004315
C       0.048652    1.165930    0.009536
O      -1.080268    1.967068    0.028764
C      -0.744319    3.374748    0.031092
C       0.751637    3.395751    0.010731
C       1.169141    2.092286   -0.001320
N       2.533284    2.058007   -0.020224
C       2.984177    3.353803   -0.020041
C       1.899860    4.219761   -0.000921
H      -1.208554    3.835361   -0.847973
H      -1.184230    3.826620    0.927043
H       3.105451    1.230658   -0.032071
H       4.041794    3.567354   -0.033492
H       1.960525    5.296904    0.003501
