18

C       0.103880    1.508055    0.126116
C      -0.012427    0.000387    0.047701
O       0.963383   -0.614955   -0.865434
C       1.242930   -1.681482    0.106919
C       2.647912   -1.922530    0.680932
C       2.400770   -1.805985    2.225135
C       1.225262   -0.828968    2.307941
C       0.575245   -0.850400    1.150386
H       1.110633    1.798364    0.436390
H      -0.106187    1.954900   -0.850557
H      -0.618991    1.906501    0.846010
H      -1.027061   -0.296358   -0.255267
H       0.740935   -2.604493   -0.213809
H       3.100697   -2.872751    0.384538
H       3.303698   -1.108889    0.355319
H       2.170302   -2.784332    2.668433
H       3.279193   -1.426054    2.757040
H       1.063010   -0.165730    3.149346
