14

O       0.087278   -0.123138   -0.290753
C      -0.002763    1.072341   -0.106424
C       1.155260    1.902387    0.157623
C       2.102810    2.611878    0.374254
C      -1.324581    1.807623   -0.095948
C      -2.586600    0.964705   -0.403216
N      -3.020994    1.220910    0.976424
C      -1.945039    1.973459    1.349644
O      -1.620890    2.526065    2.360964
H       2.947629    3.226155    0.572466
H      -1.246519    2.766173   -0.612225
H      -3.247574    1.388713   -1.164155
H      -2.368078   -0.082824   -0.618084
H      -3.825765    0.915531    1.502925
