19

C      -0.306445    1.258643   -0.040525
O       0.233752   -0.045500    0.110522
C       0.798256   -0.546843   -1.035245
C      -0.028735   -1.068702   -2.172069
C       0.900762   -2.030365   -1.435034
C       2.342186   -1.788192   -1.926080
C       2.244807   -0.293960   -1.475294
C       0.433161   -3.201828   -0.780816
C       0.065037   -4.203032   -0.222603
H       0.470147    1.993482   -0.294570
H      -1.081416    1.283057   -0.818736
H      -0.750216    1.530002    0.919509
H      -1.077818   -1.208357   -1.934663
H       0.182376   -0.805127   -3.206718
H       3.080959   -2.353334   -1.356504
H       2.500735   -1.965119   -2.993981
H       2.396912    0.471635   -2.242544
H       2.894619   -0.083259   -0.623402
H      -0.267023   -5.081561    0.271887
