18

C      -0.069914    1.581226    0.138945
N       0.086193    0.146313    0.150028
C      -1.122265   -0.706959    0.235241
C      -0.413502   -1.578433    1.289533
O       0.495640   -2.556499    0.746710
C       1.645501   -1.673198    0.927725
C       2.494354   -1.536156   -0.237820
C       3.231989   -1.424895   -1.180001
C       0.697471   -0.505027    1.317339
H       0.913396    2.061869    0.158746
H      -0.569792    1.887459   -0.786009
H      -0.663106    1.971740    0.988656
H      -1.994891   -0.185050    0.660742
H      -1.408975   -1.198181   -0.700115
H      -0.982620   -1.956801    2.140023
H       2.238153   -2.020913    1.785993
H       3.872021   -1.322938   -2.021280
H       0.970103    0.131700    2.162033
