20

C       0.102275    1.583722    0.082911
C       0.165049    0.055299    0.044070
C       0.558989   -0.492074   -1.338136
C       0.603348   -1.988120   -1.387638
N       1.682585   -2.806400   -0.785161
C       1.359727   -2.943165   -2.229853
C       0.085303   -3.853175   -2.349302
O      -0.342920   -4.237034   -1.043413
C      -0.666569   -2.927363   -1.505298
H       1.072270    2.027395   -0.168582
H      -0.631744    1.969993   -0.633264
H      -0.180548    1.944756    1.076321
H       0.881230   -0.309354    0.790104
H      -0.807667   -0.362903    0.331954
H      -0.153188   -0.125819   -2.091236
H       1.540275   -0.092252   -1.629045
H       2.504394   -2.201526   -0.735647
H       2.093815   -2.763142   -3.004596
H      -0.209363   -4.469368   -3.189758
H      -1.707202   -2.623953   -1.509819
