17

C      -0.105314    1.582933    0.011674
C      -0.001180    0.055783    0.002414
C      -1.371489   -0.621756    0.011734
C      -1.301362   -2.138748    0.002872
O      -0.260923   -2.762557   -0.010525
C      -2.584484   -2.819761    0.011543
C      -3.656433   -3.387978    0.018668
C      -4.855265   -4.025261    0.026785
C      -5.922492   -4.590518    0.033786
H       0.886734    2.044156    0.004753
H      -0.649607    1.951593   -0.864994
H      -0.632826    1.942019    0.902459
H       0.557022   -0.280726   -0.877606
H       0.573569   -0.290181    0.867999
H      -1.960765   -0.321120    0.889977
H      -1.977229   -0.311740   -0.851929
H      -6.859855   -5.090222    0.040115
