23

C       0.021254    1.647975   -0.146798
C       0.021250    0.123471    0.011339
C       0.740185   -0.628576   -1.141361
C       1.417144   -1.853075   -0.482591
C       1.525758   -1.449136    0.978031
C       2.367997   -2.205584    1.961248
C       1.897099   -3.644663    2.185051
O       2.788280   -4.246201    3.111712
C       0.761508   -0.383830    1.229180
H       1.045467    2.034583   -0.194218
H      -0.495590    1.948810   -1.064674
H      -0.483183    2.136791    0.693759
H      -1.028989   -0.205331    0.069079
H       0.065909   -0.897743   -1.959130
H       1.510866    0.028345   -1.561281
H       0.803940   -2.759571   -0.590028
H       2.390572   -2.092157   -0.928253
H       3.408736   -2.251901    1.612191
H       2.377972   -1.692877    2.928763
H       0.863741   -3.636513    2.566537
H       1.889954   -4.191403    1.228970
H       2.499062   -5.150550    3.263355
H       0.647509    0.074189    2.207566
