16

C      -0.531680    1.293942   -0.128321
N      -0.068510   -0.088895   -0.117323
C      -0.098726   -0.764515    1.184725
C      -1.454482   -0.938154    1.701755
C      -2.569001   -1.069959    2.130391
C       0.379361   -0.805225   -1.182152
O       0.760534   -1.966658   -1.115613
C       0.454608   -0.199303   -2.598419
O       0.165794    0.905108   -2.974368
H      -0.500970    1.694511   -1.136082
H      -1.555831    1.340027    0.256434
H       0.106245    1.903864    0.523765
H       0.388162   -1.733012    1.051401
H       0.496039   -0.178760    1.898757
H      -3.552068   -1.201693    2.510485
H       0.845349   -0.982453   -3.278395
