20

C      -0.766033    1.125324    0.003573
C       0.148573   -0.090079   -0.117203
C       1.341820    0.071520   -1.090967
C       2.367394   -0.885636   -0.538721
C       2.074483   -1.274795    0.698901
C       0.811286   -0.597608    1.220991
C       1.185101    0.530736    2.213329
C      -0.077649   -1.546102    1.904568
N      -0.783683   -2.285463    2.445019
H      -0.224328    2.015528    0.338198
H      -1.212058    1.358186   -0.968648
H      -1.585343    0.940442    0.705846
H      -0.447068   -0.931651   -0.486982
H       1.054510   -0.151518   -2.124288
H       1.728791    1.101218   -1.094993
H       3.253213   -1.184120   -1.088103
H       2.663157   -1.933770    1.325892
H       1.814129    1.272094    1.713556
H       0.294933    1.027854    2.606947
H       1.746540    0.121908    3.057723
