24

C       0.143556    1.436558   -0.184250
C       0.203474   -0.099406   -0.047644
C       0.860301   -0.727560   -1.280537
C       0.859654   -0.488581    1.268932
N       2.010924   -1.035426    1.179205
O       2.575166   -1.367473    2.427115
C       0.079524   -0.204459    2.547395
C      -0.311648   -1.508132    3.271572
C       0.799828    0.780191    3.488235
H       1.153814    1.850991   -0.267591
H      -0.413085    1.716819   -1.084146
H      -0.346528    1.911204    0.671103
H      -0.834168   -0.461787    0.011470
H       1.891526   -0.383505   -1.394744
H       0.885544   -1.817544   -1.206354
H       0.302614   -0.452260   -2.181635
H       3.410319   -1.767640    2.164869
H      -0.853937    0.276727    2.231613
H      -0.875704   -2.173876    2.610318
H       0.573545   -2.042660    3.619139
H      -0.944106   -1.278710    4.135677
H       1.032778    1.719002    2.976037
H       0.155931    1.014505    4.342765
H       1.733240    0.357189    3.861350
