17

C      -0.083361    1.587391   -0.114947
C      -0.008480    0.071801   -0.055474
O      -1.268724   -0.545021   -0.242463
C       1.137231   -0.633499   -0.885304
C       1.678710   -1.200930    0.428184
O       1.963268   -0.113123    1.293899
C       0.606331   -0.544327    1.228018
C      -0.084042   -1.044804    2.441327
O       0.478367   -1.340465    3.466633
H       0.880156    2.025333    0.155559
H      -0.335806    1.921969   -1.128724
H      -0.850064    1.959868    0.571300
H      -1.650290   -0.211730   -1.061598
H       0.712818   -1.398112   -1.539057
H       1.833478    0.001690   -1.438651
H       2.186525   -2.138007    0.626134
H      -1.180654   -1.147252    2.315652
