18

C       0.031333    1.525196    0.045288
C      -0.014256    0.027557   -0.025882
C      -0.030287   -0.673814   -1.159498
C      -0.047318   -2.175807   -1.132442
O       1.112036   -2.779350   -0.524021
C       1.400532   -2.689359    0.805632
N       2.007210   -3.612067    1.418723
O       1.177873   -1.531078    1.468666
C      -0.003875   -0.743084    1.276618
H       0.943669    1.863716    0.552216
H       0.002129    1.977586   -0.949045
H      -0.812775    1.919014    0.625748
H      -0.004133   -0.179354   -2.126358
H      -0.948523   -2.552896   -0.627549
H      -0.046649   -2.585292   -2.143873
H       2.177832   -4.383288    0.775450
H      -0.007654   -0.065955    2.133214
H      -0.893524   -1.382801    1.360586
