17

C       0.043653    1.473881   -0.118578
C       0.032371   -0.055218   -0.025643
N       0.704280   -0.609105    1.148089
C      -1.414772   -0.601510   -0.008369
O      -2.116755   -0.085152   -1.144619
C      -3.457703    0.091199   -1.030444
O      -4.118448    0.513690   -1.925490
C      -1.439779   -2.073235   -0.038210
N      -1.500131   -3.225016   -0.093783
H       1.076674    1.832377   -0.144778
H      -0.469908    1.830836   -1.014044
H      -0.444563    1.919578    0.757364
H       0.514573   -0.475187   -0.914631
H       1.704248   -0.666325    0.996502
H       0.561468   -0.012894    1.958046
H      -1.904879   -0.268758    0.917595
H      -3.845139   -0.187055   -0.032192
