17

C      -0.272311    1.527517    0.085905
C       0.045455    0.027533   -0.033198
C       0.740347   -0.502777    1.194886
C       0.127332   -1.399165    2.073685
C       0.865406   -1.801339    3.178080
N       2.103818   -1.367169    3.413377
C       2.587155   -0.511741    2.506002
O       3.831248   -0.055496    2.713078
N       1.982692   -0.056190    1.415217
H       0.643941    2.093235    0.271970
H      -0.730171    1.898261   -0.835572
H      -0.965531    1.719615    0.911134
H      -0.871702   -0.542649   -0.212099
H       0.706583   -0.131543   -0.892294
H      -0.876567   -1.765719    1.901092
H       0.454734   -2.499108    3.904516
H       4.134764   -0.471506    3.531480
