17

N      -0.253991   -0.956574   -0.594620
C      -0.108159    0.150779   -0.299976
C       0.089416    1.557269    0.045692
C       1.581265    1.949844    0.172997
C       2.356173    1.869383   -1.187459
C       2.137578    3.393926   -1.377126
C       1.770446    3.506706    0.125993
C       2.196994    1.274083    1.308360
N       2.703517    0.764968    2.214379
H      -0.373453    2.171626   -0.734160
H      -0.434771    1.775460    0.982008
H       3.404772    1.613320   -1.028833
H       1.937056    1.187475   -1.929873
H       2.998781    3.972890   -1.712291
H       1.295874    3.620858   -2.035905
H       0.896209    4.100844    0.402351
H       2.615819    3.818459    0.741199
