14

C      -0.036093    1.449375    0.008948
C       0.014819   -0.002477    0.006263
C       0.073925   -1.206708    0.004085
C       0.094203   -2.616698    0.001393
N       1.167058   -3.364290    0.003286
N       0.684030   -4.644579   -0.000856
C      -0.696408   -4.742722   -0.005195
O      -1.405899   -5.722893   -0.009179
N      -1.051230   -3.391330   -0.003727
H       0.974069    1.871915    0.009971
H      -0.558059    1.829415   -0.876012
H      -0.558485    1.826148    0.895055
H       1.321155   -5.421839    0.000006
H      -2.000955   -3.062804   -0.006023
