17

C       0.020458    1.272536   -0.255698
O      -0.073756    0.020100    0.392123
C      -1.310946   -0.580127    0.245366
C      -1.643509   -1.385998   -1.071588
N      -0.568939   -2.382098   -0.610387
C      -1.380477   -2.074371    0.658063
C      -2.620143   -2.166396   -0.208482
N      -3.725208   -2.773997   -0.185800
O      -4.434114   -2.581124   -1.397137
H       1.003796    1.682720   -0.017397
H      -0.069987    1.174745   -1.346826
H      -0.753886    1.970833    0.097656
H      -2.128235    0.056625    0.610009
H      -1.729717   -1.051006   -2.102004
H      -0.820516   -3.317387   -0.944326
H      -1.157758   -2.527291    1.621539
H      -5.239561   -3.083692   -1.234969
