18

C      -0.181110    1.557302    0.047657
C      -0.062950    0.033037   -0.005235
C       0.807195   -0.528008    1.137307
C       0.921206   -2.013745    1.112802
C       1.952553   -2.868458    0.875926
C       1.345505   -4.148363    0.992497
O       1.977857   -5.322422    0.840478
N       0.066595   -4.082138    1.272723
O      -0.207448   -2.710315    1.350720
H       0.801380    2.036141   -0.030594
H      -0.800563    1.932660   -0.772229
H      -0.636490    1.887698    0.987765
H      -1.056463   -0.424375    0.050873
H       0.367172   -0.277441   -0.964779
H       1.815638   -0.104888    1.084153
H       0.381767   -0.218492    2.100465
H       2.980765   -2.638423    0.656213
H       1.326061   -6.023492    0.975376
