17

O       0.150018    1.400128    0.236074
C       0.080015    0.000615    0.029428
C      -1.362178   -0.517919    0.065334
C      -1.461298   -2.027297   -0.071918
C      -2.890456   -2.595349   -0.039512
O      -2.881672   -3.594805   -1.060044
C      -1.803364   -3.416952   -1.867612
O      -1.598329   -4.023815   -2.868376
O      -0.994911   -2.446674   -1.367914
H      -0.180798    1.835618   -0.555748
H       0.560754   -0.298906   -0.911906
H       0.654871   -0.451979    0.845505
H      -1.821829   -0.218649    1.015356
H      -1.947124   -0.053240   -0.739184
H      -0.829824   -2.521856    0.677704
H      -3.149189   -3.061926    0.912517
H      -3.640748   -1.835429   -0.286985
