17

O      -0.447059   -0.320598   -1.560344
C      -0.072638    0.557439   -0.824145
C       1.337449    1.157850   -0.987372
C       2.020195    1.474774    0.258017
C       2.574484    1.723019    1.295107
C      -0.949173    1.136723    0.279198
C      -2.416540    0.864127    0.063618
C      -3.448571    1.703163    0.681669
O      -3.128416    1.838467   -0.703842
H       1.917744    0.459963   -1.598283
H       1.212441    2.073551   -1.584578
H       3.072883    1.944608    2.206354
H      -0.606028    0.686661    1.221496
H      -0.769398    2.212397    0.378606
H      -2.661626   -0.165623   -0.189132
H      -4.429381    1.282665    0.898964
H      -3.155085    2.541220    1.313410
