18

C       0.085294    1.493855    0.028334
C      -0.004783    0.000173   -0.003354
C      -0.121850   -0.777427   -1.091538
C      -0.060030   -2.221735   -0.725572
O       1.191210   -2.605080   -0.097613
C       0.079884   -2.278212    0.738026
C       0.076548   -0.853137    1.230143
C       0.732441   -0.416555    2.492271
N      -0.725161   -0.578085    2.442137
H       1.085720    1.826506    0.331380
H      -0.123850    1.919152   -0.956168
H      -0.624621    1.934873    0.739472
H      -0.198822   -0.418433   -2.110737
H      -0.529007   -2.997095   -1.322696
H      -0.310384   -3.068717    1.372347
H       1.257806   -1.148147    3.099574
H       1.150525    0.586064    2.529518
H      -1.180592    0.328632    2.364665
