16

O       0.033502    1.392744   -0.086136
C       0.092543   -0.033427   -0.116252
C      -1.329362   -0.564050   -0.023011
O      -2.141191   -0.002828   -1.026808
C      -1.625113   -2.064319    0.113370
N      -0.952889   -2.494112    1.343124
C      -2.330700   -1.889472    1.432934
C      -2.055834   -0.403744    1.373232
O      -2.381056    0.558509    2.007688
H      -0.308948    1.649770    0.779434
H       0.535931   -0.298707   -1.081891
H       0.716384   -0.442984    0.685741
H      -1.859676    0.921869   -1.087792
H      -1.880098   -2.737750   -0.693703
H      -1.084723   -3.500702    1.439539
H      -3.148033   -2.440633    1.879578
