18

C      -0.312941    1.272725    0.145500
O       0.095768   -0.087872    0.017520
C       0.732868   -0.603740    1.143366
C       1.899127    0.105702    1.600117
N       2.823832    0.682118    1.992890
C      -0.154557   -1.352260    2.160564
N      -1.574351   -1.402830    1.958472
C       0.725021   -2.141670    1.227199
N       0.140289   -2.920553    0.178858
H       0.551566    1.935294    0.270269
H      -0.832674    1.525914   -0.780275
H      -0.991266    1.408567    0.997310
H       0.139901   -1.306806    3.203197
H      -2.046823   -0.778750    2.603460
H      -1.801721   -1.096216    1.017350
H       1.631445   -2.554852    1.664149
H      -0.841335   -3.093072    0.371951
H       0.207696   -2.452783   -0.717775
