15

C      -0.051376    1.497502    0.168159
N      -0.015836    0.054833    0.076559
C      -1.245378   -0.690408    0.457746
C      -0.361718   -1.621913    1.253987
C       0.807487   -0.680261    1.071654
N      -0.585900   -2.744210    1.786941
O       0.571301   -3.239972    2.416302
H       0.938158    1.906807   -0.059915
H      -0.755957    1.898232   -0.567941
H      -0.353058    1.866589    1.167739
H      -1.936620   -0.114190    1.095190
H      -1.807271   -1.112223   -0.382288
H       1.739113   -1.104354    0.682766
H       1.033643   -0.108380    1.987041
H       0.269752   -4.089644    2.755174
