12

N       0.123475   -1.088010    0.095888
C       0.058784    0.061521    0.014884
C      -0.034442    1.531704   -0.025815
C      -0.622061    2.110151    1.320502
O       0.443753    2.938298    1.818602
C       1.444326    2.847179    0.926242
N       1.324377    2.125815   -0.113863
C      -0.842321    1.944342   -1.187210
N      -1.498137    2.300428   -2.067714
H      -1.504944    2.728000    1.154465
H      -0.834510    1.327209    2.048961
H       2.327221    3.426262    1.170990
