12

N      -0.045930    1.359952    0.160438
C       0.005107   -0.012279    0.050198
N      -1.078280   -0.785132    0.032882
N      -0.559617   -2.020070   -0.016154
N       0.749746   -2.122001   -0.038138
C       1.160484   -0.842366    0.002589
C       2.510144   -0.433860   -0.011400
C       3.640181   -0.017237   -0.029520
H       0.763166    1.834010   -0.213802
H      -0.917368    1.766866   -0.146869
H      -1.151631   -2.833696   -0.035512
H       4.643993    0.329031   -0.036697
