14

N      -0.031691    1.411499    0.014435
C      -0.037474    0.011212    0.021052
C      -1.075628   -0.896349    0.066562
N      -0.661804   -2.222104    0.056029
C       0.640343   -2.098447    0.003477
N       1.787998   -2.862804   -0.038707
C       2.836891   -1.974362   -0.084542
N       2.459648   -0.720676   -0.075156
N       1.092566   -0.814754   -0.020395
H       0.462642    1.799982    0.811756
H       0.394633    1.792580   -0.824638
H      -2.124646   -0.644748    0.107313
H       1.839990   -3.865800   -0.036114
H       3.866850   -2.290127   -0.124119
