17

C      -0.752079    1.246766   -0.022855
C       0.199661    0.054749    0.013740
C       1.194017   -0.001682   -1.199392
C       2.363092   -0.717887   -0.600790
N       3.431592   -1.339902   -0.993651
O       4.044529   -1.743148    0.181105
N       3.324890   -1.354688    1.298944
C       2.297109   -0.727054    0.816577
C       1.077044   -0.017941    1.313175
H      -0.198284    2.192109    0.009053
H      -1.356156    1.243298   -0.935817
H      -1.438370    1.231862    0.829908
H      -0.390102   -0.869261   -0.019694
H       0.763075   -0.499151   -2.071153
H       1.485173    1.009639   -1.511065
H       1.337376    0.989098    1.663574
H       0.567277   -0.526361    2.134638
