13

N      -0.004355    0.957457   -0.801770
C      -0.025401   -0.031166   -0.008607
N       1.070732   -0.574374    0.663527
C       1.378411   -1.810037    0.497136
C       0.671799   -2.791173   -0.301842
C      -0.642391   -2.773450   -0.586893
O      -1.593046   -1.920958   -0.151355
C      -1.378265   -0.628531    0.329972
O      -2.250153   -0.094644    0.932776
H       0.959113    1.286042   -0.916243
H       2.284183   -2.154319    0.999444
H       1.230035   -3.651403   -0.654458
H      -1.096959   -3.558352   -1.181727
