20

C       0.067098    1.402359   -0.018409
O       0.027628   -0.003598    0.008538
C       0.710662   -0.552336    1.113685
C       0.626481   -2.084666    1.022786
C       1.298877   -2.611420   -0.259756
C       1.199354   -2.687147    2.225627
C       1.692446   -3.169819    3.212850
C       2.278473   -3.763497    4.406626
H       1.099319    1.781511   -0.085084
H      -0.486785    1.729356   -0.901862
H      -0.400519    1.841839    0.877086
H       1.767682   -0.236175    1.116852
H       0.261098   -0.207710    2.058573
H      -0.442374   -2.334844    0.976076
H       2.371960   -2.395208   -0.245790
H       1.173116   -3.693710   -0.345277
H       0.856723   -2.129900   -1.134453
H       3.054352   -4.493267    4.149537
H       2.740737   -3.002092    5.044785
H       1.522741   -4.282365    5.006896
