21

C      -0.302171    1.438558   -0.301771
C       0.012027   -0.047004   -0.203732
C       1.357280   -0.576773   -0.829288
C       1.751817   -1.080613    0.561454
O       1.752178    0.063904    1.434210
C       0.499175   -0.584532    1.165466
C      -0.320382   -1.028002    2.316368
C       0.328726   -1.319833    3.645553
C      -0.534909   -0.096083    3.490909
H       0.524196    2.027722    0.105929
H      -0.456783    1.741251   -1.342972
H      -1.210438    1.690018    0.256710
H      -0.829174   -0.648378   -0.565313
H       1.203418   -1.375146   -1.559192
H       2.026359    0.179030   -1.249470
H       2.393983   -1.907673    0.843096
H      -1.165753   -1.649952    2.035407
H      -0.052056   -2.154419    4.223230
H       1.398924   -1.164301    3.710462
H      -0.033966    0.864676    3.458549
H      -1.512106   -0.084330    3.960447
