16

O      -0.284463    0.314858    0.685356
C       0.085760    1.017255   -0.217666
C       1.129954    2.114075   -0.066083
N       1.044885    3.041826   -1.179946
C       1.250633    4.257927   -0.975662
O       1.561327    4.926488    0.214993
C       1.421727    6.198724   -0.471682
C       2.468244    6.312804   -1.516108
C       1.194768    5.501990   -1.794659
H      -0.300377    0.907518   -1.255416
H       1.031356    2.576192    0.923671
H       2.109214    1.610377   -0.087221
H       0.883799    6.984162    0.039859
H       2.510186    7.257727   -2.049152
H       3.420614    5.810647   -1.379954
H       0.525682    5.708636   -2.616135
