17

C       0.286300    1.639271    0.248161
C      -0.037575    0.164138    0.253069
O       0.501087   -0.557548   -0.902064
C       1.159298   -1.522270   -0.073650
C       2.580057   -1.125494    0.358149
O       2.072184   -0.373823    1.494672
C       0.726939   -0.768022    1.220683
C       0.841054   -2.946908   -0.412861
O       1.478494   -3.886156   -0.006655
H       1.364278    1.797311    0.321593
H      -0.082593    2.099440   -0.673152
H      -0.197811    2.135074    1.096149
H      -1.121834   -0.006167    0.306816
H       3.184773   -1.977445    0.684518
H       3.124132   -0.500482   -0.355629
H       0.212136   -1.184171    2.088327
H      -0.050246   -3.065602   -1.066140
