16

C      -0.079604    1.386961    0.056069
N      -0.020074   -0.052963    0.029418
C      -1.177831   -0.909081    0.034506
C      -0.571593   -2.300665   -0.001229
C       0.768054   -2.197383   -0.023496
C       1.165853   -0.763334   -0.004798
O       2.283300   -0.286634   -0.016213
C      -1.372360   -3.461219   -0.007729
C      -2.088198   -4.430403   -0.012260
H       0.949364    1.751734    0.044489
H      -0.611210    1.784922   -0.817482
H      -0.580006    1.753222    0.961351
H      -1.796526   -0.769359    0.933031
H      -1.827815   -0.737849   -0.836057
H       1.489876   -2.999907   -0.051012
H      -2.706319   -5.294229   -0.017385
