21

C       0.315094    1.470681    0.025444
C      -0.030729    0.002963   -0.009511
C      -0.051011   -0.665963   -1.167240
C      -0.277493   -2.136892   -1.425734
C      -1.320942   -2.842629   -0.562367
O      -1.008831   -2.862127    0.820854
C      -1.321790   -1.663734    1.508534
C      -0.224429   -0.608272    1.377020
O       1.008666   -1.133562    1.869481
H       1.192184    1.637125    0.663484
H       0.533571    1.866603   -0.969622
H      -0.502488    2.063135    0.456867
H       0.190722   -0.093900   -2.062066
H      -0.580751   -2.267992   -2.472186
H       0.676965   -2.676495   -1.328783
H      -2.308412   -2.379555   -0.713786
H      -1.392195   -3.892292   -0.867283
H      -2.290074   -1.261132    1.174966
H      -1.401800   -1.938537    2.565467
H      -0.484322    0.203543    2.068133
H       1.106608   -1.998257    1.451121
