22

C      -0.217081    1.573347   -0.035400
C       0.013089    0.085890   -0.049093
C       0.102717   -0.697786    1.236878
C       1.415122   -0.515785    2.035827
C       1.344415   -1.346787    3.325100
C       2.640745   -0.909281    1.202369
O       1.476121    0.877511    2.369417
N       0.117151   -0.605977   -1.121515
O       0.018848    0.201644   -2.269650
H       0.633301    2.094823   -0.486851
H      -1.092081    1.819763   -0.645749
H      -0.347931    1.942202    0.980096
H      -0.726841   -0.404865    1.892179
H      -0.011734   -1.758794    1.000364
H       1.249935   -2.415871    3.109438
H       2.254323   -1.206973    3.920556
H       0.489653   -1.035866    3.932617
H       2.706221   -0.301482    0.297499
H       3.558250   -0.765698    1.785654
H       2.596564   -1.961094    0.903728
H       2.305418    1.032644    2.833627
H       0.084379   -0.448579   -2.976518
