18

C      -0.161052    1.548637   -0.234264
C      -0.037383    0.027717   -0.102038
C      -1.353612   -0.626594    0.255347
O      -2.361068   -0.467793   -0.805168
C      -2.464277   -1.825252   -0.994627
N      -3.141897   -2.498066   -1.802040
C      -1.489501   -2.179422    0.129530
C      -0.322776   -2.970158   -0.196647
C       0.651662   -3.623090   -0.456706
H       0.798577    1.994855   -0.509419
H      -0.892051    1.811260   -1.004192
H      -0.485480    2.005649    0.707107
H       0.335064   -0.410322   -1.034135
H       0.689785   -0.233944    0.676594
H      -1.758440   -0.231511    1.192535
H      -3.699031   -1.898679   -2.413191
H      -2.020596   -2.615061    0.981688
H       1.505227   -4.207497   -0.697525
