20

C      -0.354178    1.467199    0.076205
C      -0.039579   -0.010832    0.011613
C       0.631337   -0.636803   -1.164370
C       1.090087    0.187964   -2.365112
C       2.265311    1.117039   -2.083515
O       2.407369    2.173987   -2.652932
C       3.221258    0.592479   -1.032936
C       2.460547    0.359801    0.286519
N       1.321610   -0.554497    0.134098
H       0.278191    2.081458   -0.569332
H      -1.392092    1.631801   -0.231768
H      -0.254774    1.844519    1.100556
H      -0.769991   -0.620854    0.543068
H       0.339927   -1.653999   -1.421044
H       1.445129   -0.505650   -3.139854
H       0.279013    0.767551   -2.816042
H       3.630479   -0.367199   -1.375025
H       4.043428    1.298319   -0.897939
H       3.145406   -0.078179    1.020829
H       2.143508    1.327393    0.695003
