15

C      -0.390156    1.450875    0.078806
C      -0.017356   -0.003846   -0.062149
N      -0.271041   -0.586733   -1.188948
C       0.023469   -1.907181   -1.466808
O       0.629522   -2.287080   -2.441523
C      -0.574159   -2.873808   -0.480783
N      -0.243016   -2.911732    0.754834
C       0.539802   -1.962716    1.368944
C       0.617804   -0.638005    1.076293
H      -1.074716    1.597523    0.921326
H       0.504064    2.050179    0.286386
H      -0.855281    1.810501   -0.838768
H      -1.279850   -3.616207   -0.856292
H       1.035188   -2.328338    2.264977
H       1.101773    0.010085    1.801811
