18

O       0.051377    1.485340   -0.140836
C       0.070839    0.069272   -0.071119
C      -1.342660   -0.516872    0.009929
C      -1.354875   -2.048838    0.000006
O      -0.651082   -2.473744    1.182205
C      -0.328684   -3.784258    1.256491
N       0.302602   -4.213461    2.259875
C      -2.713675   -2.591064   -0.038622
C      -3.830577   -3.032690   -0.071257
H      -0.207800    1.820242    0.723344
H       0.559024   -0.267265   -0.993478
H       0.676722   -0.290410    0.770240
H      -1.841905   -0.177852    0.924970
H      -1.933042   -0.156861   -0.837916
H      -0.804033   -2.406573   -0.883234
H      -0.666149   -4.371172    0.392827
H       0.472706   -5.212310    2.162048
H      -4.818050   -3.423768   -0.098093
