20

O       0.536314    0.727927    0.650198
C       0.144036   -0.502368    0.094743
C      -1.354925   -0.823233   -0.078096
C      -2.333582   -1.268207    0.960557
C      -2.455313    0.108406    0.345719
C      -1.112312   -1.360219   -1.499077
C       0.285084   -0.728783   -1.422072
C       0.925626    0.223770   -2.355248
N       1.459153   -1.142832   -2.173918
H       0.066695    1.420085    0.170603
H       0.669148   -1.268637    0.677603
H      -3.067006   -2.018696    0.683026
H      -1.991434   -1.334703    1.988801
H      -2.187641    0.958341    0.966566
H      -3.267982    0.293742   -0.349353
H      -1.073586   -2.452808   -1.551301
H      -1.773880   -0.990637   -2.287302
H       0.482135    0.416068   -3.328806
H       1.478912    1.056649   -1.927312
H       2.283348   -1.113720   -1.576498
