21

C      -0.065392    1.517641    0.181430
C       1.336155    2.085222    0.001372
C       2.319489    0.951041    0.233745
C       1.514079   -0.318599    0.465901
C       0.081348   -0.004066   -0.036812
O      -0.128828   -0.433201   -1.380512
C       0.289205    0.434529   -2.415633
C       1.763927    0.839879   -2.375054
C       2.221359    1.591059   -1.130314
H      -0.383820    1.693621    1.216017
H      -0.831626    1.957702   -0.463064
H       1.531625    3.079556    0.388744
H       3.226596    1.098672    0.809970
H       1.908804   -1.202745   -0.044606
H       1.485642   -0.544063    1.538847
H      -0.663099   -0.563523    0.536196
H       0.088543   -0.114764   -3.341182
H      -0.331980    1.342407   -2.442060
H       2.388780   -0.051980   -2.514623
H       1.937009    1.476595   -3.252178
H       3.045397    2.269506   -1.336924
