23

C       0.146051    1.270618   -0.278602
O      -0.016485   -0.040418    0.207095
C      -1.340562   -0.526565    0.116224
C      -1.827953   -0.845490   -1.314150
C      -2.898757   -1.913672   -1.071524
C      -2.250839   -2.840218   -0.015947
C      -3.252871   -3.703170    0.748628
O      -1.270386   -3.676156   -0.649824
C      -1.442784   -1.868041    0.878592
H       1.182334    1.561007   -0.087517
H      -0.044336    1.345535   -1.359576
H      -0.521057    1.981259    0.236371
H      -2.022702    0.215320    0.566922
H      -2.197992    0.028070   -1.857017
H      -0.992839   -1.278801   -1.873845
H      -3.808069   -1.457983   -0.658555
H      -3.191538   -2.461604   -1.973825
H      -3.808900   -4.354890    0.063015
H      -2.733981   -4.338462    1.472657
H      -3.981951   -3.087549    1.285259
H      -1.736445   -4.264906   -1.253907
H      -0.440775   -2.271832    1.035429
H      -1.912137   -1.738378    1.856707
