15

C      -0.036985    1.506008    0.028052
C       1.515175    1.568354    0.015802
C       2.136970    1.159462    1.379405
C       1.785680   -0.316340    1.078693
O       0.380777   -0.586762    1.288067
C       0.040905   -0.038208   -0.005878
C       1.539423    0.047027   -0.413343
H      -0.571285    1.958249    0.868268
H      -0.448281    1.887536   -0.912872
H       1.990144    2.375256   -0.541370
H       3.223046    1.302295    1.369263
H       1.721814    1.592711    2.293681
H       2.418055   -1.116661    1.468295
H      -0.746363   -0.612226   -0.498742
H       2.013767   -0.388988   -1.288245
