21

C      -0.119038    1.504690   -0.019250
C      -0.086769   -0.000148    0.187545
O      -1.361860   -0.521496   -0.137327
C      -1.449779   -1.926138   -0.077287
C      -1.448088   -2.526846    1.354229
C      -2.272033   -3.831241    1.249549
C      -3.242005   -3.550085    0.115711
O      -3.879457   -2.271573    0.225289
C      -2.763205   -2.403624   -0.664148
H       0.853163    1.944498    0.222836
H      -0.361649    1.744048   -1.058461
H      -0.877341    1.962058    0.622432
H       0.683894   -0.463468   -0.452670
H       0.176261   -0.236677    1.230648
H      -0.633956   -2.373715   -0.674863
H      -0.442338   -2.697741    1.743510
H      -1.953484   -1.813769    2.009608
H      -1.640037   -4.684842    0.975233
H      -2.778138   -4.087215    2.185593
H      -3.849701   -4.341323   -0.316346
H      -2.980072   -2.253819   -1.718271
