14

N      -0.098366    1.368834   -0.053342
C      -0.072302    0.010321   -0.003532
N      -1.145879   -0.688961    0.025684
C      -1.065090   -2.068878    0.010321
N       0.018682   -2.851449   -0.052973
N      -0.493963   -4.075691   -0.030220
N      -1.827301   -4.177033    0.039212
C      -2.202617   -2.907782    0.065603
O      -3.489055   -2.526971    0.136084
H       0.731935    1.884332    0.181077
H      -0.982531    1.825010    0.110794
H       0.929502   -0.427185   -0.028112
H       0.087845   -4.894037   -0.074048
H      -3.475930   -1.559740    0.133445
