20

C      -0.132133    1.497291    0.148154
C       0.092543    0.024499    0.006204
N      -0.810363   -0.974526    0.621071
C       0.640593   -0.993212    0.955342
C       1.372540   -1.716286   -0.195435
O       0.998326   -3.013286   -0.574635
C      -0.127844   -2.945424   -1.459411
C      -0.098458   -1.552643   -2.140198
C       0.752394   -0.690925   -1.196771
H       0.765451    2.061657   -0.127164
H      -0.949696    1.838698   -0.498368
H      -0.390886    1.759845    1.180161
H      -1.280547   -0.516279    1.401752
H       0.962902   -0.887077    1.985105
H       2.459250   -1.679722   -0.078229
H      -0.024580   -3.768355   -2.174828
H      -1.054691   -3.074950   -0.894410
H       0.378508   -1.612855   -3.122769
H      -1.109352   -1.161021   -2.277133
H       1.480114   -0.061766   -1.711776
