17

C       0.050570    1.498225   -0.160144
N       0.014466    0.050569    0.019348
C      -1.042395   -0.556698    0.928656
C      -0.129820   -1.807267    0.986104
C       0.774276   -0.555919    1.208147
C      -0.318279   -0.025772    2.195853
C       2.200359   -0.484780    1.335779
C       3.395445   -0.411635    1.450867
H       1.035334    1.768483   -0.554062
H      -0.695532    1.764799   -0.915989
H      -0.137271    2.114913    0.731685
H      -2.102545   -0.509464    0.680073
H      -0.250306   -2.476375    1.838977
H       0.025714   -2.322941    0.039013
H      -0.335822    1.046941    2.382159
H      -0.451171   -0.585131    3.125450
H       4.451199   -0.352483    1.549282
