17

C      -0.347211   -0.972529    0.985985
C      -0.126319    0.011879    0.332925
C       0.130469    1.210269   -0.456962
C       1.502507    1.845233   -0.259086
C       2.265345    1.621195    0.886718
C       3.497129    2.251766    1.050344
C       3.981668    3.113284    0.070407
C       3.226330    3.339828   -1.078431
C       1.997083    2.708624   -1.240320
H      -0.543865   -1.847286    1.554651
H      -0.003232    0.974430   -1.520269
H      -0.644371    1.955534   -0.225273
H       1.893999    0.943552    1.647466
H       4.079721    2.065096    1.946726
H       4.942125    3.601499    0.197412
H       3.596329    4.004831   -1.852049
H       1.414836    2.886438   -2.140363
