16

N      -0.488083    0.389690    1.447253
C      -0.194174   -0.510077    0.416672
C      -0.916051   -1.371465   -0.384346
N      -2.277268   -1.714984   -0.415354
C      -3.355835   -1.043398    0.064180
N      -3.296563    0.028971    0.764822
N      -0.105211   -1.996035   -1.302757
C       1.101590   -1.531050   -1.079043
N       1.100290   -0.625488   -0.063978
H      -1.501185    0.545499    1.443782
H      -0.222353    0.021334    2.356951
H      -2.457843   -2.487621   -1.036664
H      -4.290394   -1.541487   -0.216340
H      -4.229971    0.345289    1.008968
H       1.998660   -1.820949   -1.603929
H       1.870912   -0.068345    0.265550
