17

N       0.245161    0.879885   -1.273646
C       0.042099    0.020246   -0.369325
O       1.021953   -0.432754    0.459830
C       0.600575   -1.286569    1.532652
C      -0.200470   -2.490509    1.014370
N      -1.131615   -2.125467   -0.067240
C      -1.313078   -0.673603   -0.222519
C      -2.116739   -0.102918    0.862171
C      -2.775952    0.380213    1.742899
H       1.215744    1.201127   -1.246295
H       1.515862   -1.607444    2.034139
H       0.005017   -0.703860    2.241747
H       0.481307   -3.261137    0.642012
H      -0.748601   -2.924021    1.860915
H      -0.779170   -2.479149   -0.948552
H      -1.839520   -0.496531   -1.164130
H      -3.366317    0.808352    2.515154
