13

O      -0.033319   -0.000708    0.132404
C       0.013581    1.182883    0.188698
O       1.105264    1.881159   -0.249169
C       1.073598    3.298010   -0.158518
C       2.274715    3.777258    0.688029
C       2.136723    3.346247    2.075783
N       1.994033    3.004936    3.169647
C       1.136065    3.876655   -1.509598
N       1.192388    4.357523   -2.557457
H      -0.780936    1.841225    0.586254
H       0.140026    3.630280    0.314908
H       3.194839    3.369366    0.259476
H       2.339734    4.869029    0.645431
