18

C      -0.101624    1.496055    0.047134
C       0.099924    0.007762   -0.026835
O      -0.493228   -0.775398    1.020517
C       0.951552   -0.788935    0.876849
C       1.465599   -1.953341    0.094509
C       0.966612   -1.926550   -1.145492
C       0.098112   -0.733224   -1.357453
C      -1.091336   -0.710111   -2.252078
N       0.150120   -0.046510   -2.665903
H       0.686917    2.034514   -0.488830
H      -1.068406    1.788671   -0.380118
H      -0.090893    1.817062    1.091021
H       1.496816   -0.367578    1.716651
H       2.117965   -2.712453    0.506557
H       1.124913   -2.663970   -1.923120
H      -1.352725   -1.595976   -2.824142
H      -1.940247   -0.106247   -1.939649
H       0.070032    0.959284   -2.534693
