20

C       0.471303    1.377563   -0.743778
C       0.059860    0.037427   -0.192223
O       1.097106   -0.893476    0.094336
C       0.351476   -0.399891    1.195896
C       1.111546    0.494146    2.158592
O       2.260835    0.829221    1.931156
N       0.432428    0.884645    3.285616
C       1.138785    1.642253    4.305054
C      -0.972734    0.630067    3.542273
H       1.341854    1.761265   -0.209560
H       0.726537    1.279552   -1.803988
H      -0.353406    2.094218   -0.663503
H      -0.818766   -0.413030   -0.660391
H      -0.308733   -1.140759    1.645359
H       0.706630    2.644932    4.416591
H       1.075069    1.132257    5.274418
H       2.181254    1.730872    4.004328
H      -1.496608    0.344447    2.631110
H      -1.119360   -0.156082    4.296228
H      -1.445595    1.544977    3.918448
