15

N      -0.508367   -1.140884   -0.225206
C      -0.225810   -0.037378   -0.025796
C      -0.007281    1.385860    0.092529
C       0.502924    2.131532    1.261396
C       1.682284    1.458012    1.983282
O       1.685897    0.019679    2.011357
C       2.547477   -0.038345    0.833882
C       2.440395    1.482427    0.658190
N       1.265533    2.136821   -0.067604
H      -0.783946    1.922754   -0.450175
H      -0.015034    3.016770    1.619124
H       2.007285    1.918987    2.917608
H       3.560937   -0.353031    1.111252
H       2.157190   -0.696258    0.056232
H       3.339346    2.062061    0.461740
