18

O       0.001529    0.011259    0.196812
C       0.023458    1.210067    0.115771
C      -1.135512    2.218477    0.078394
C      -0.269410    3.514044   -0.113261
C      -0.845061    4.455929   -1.214967
C      -0.108136    3.451090   -2.202936
N       0.792462    3.167721   -1.039612
C       1.220317    2.150487   -0.013874
C       0.796482    3.308626    1.019356
H      -1.822035    2.011566   -0.746271
H      -1.714667    2.203591    1.006271
H      -1.930616    4.540457   -1.295647
H      -0.377602    5.441054   -1.238227
H      -0.765687    2.641921   -2.545683
H       0.421935    3.873369   -3.058849
H       2.221567    1.725957   -0.058681
H       1.559224    4.085940    1.048324
H       0.474463    3.003695    2.019387
