17

C      -0.097953    1.499370    0.006165
C       0.111422    0.017837    0.017633
N      -0.770590   -0.909518    0.757647
C       0.682161   -0.924944    1.031411
C       1.343629   -1.791905   -0.072161
C       0.761996   -0.824972   -1.120509
O      -0.045710   -1.893840   -1.688939
C       0.449330   -2.809625   -0.764587
N       0.235392   -4.036474   -0.643237
H       0.784819    2.021450   -0.378235
H      -0.950196    1.770968   -0.627623
H      -0.295471    1.875893    1.015650
H      -1.214562   -0.368454    1.499297
H       1.070957   -0.742704    2.025285
H       2.404585   -2.007573    0.025756
H       1.346497   -0.293006   -1.870584
H      -0.442806   -4.365791   -1.332523
