19

C      -0.073730    1.521387   -0.058556
C       0.109813    0.014227    0.024832
O       1.103298   -0.454675   -0.910940
C       2.012681   -1.241530   -0.101633
C       2.099510   -2.591880   -0.854305
O       0.814849   -2.968621   -0.215905
C       1.142244   -2.006432    0.836823
C       0.709150   -0.562340    1.302150
C       2.290979   -0.264334    1.078468
H       0.832973    2.061384    0.227742
H      -0.328091    1.806363   -1.083692
H      -0.891185    1.843079    0.595379
H      -0.844883   -0.479455   -0.203011
H       2.016397   -2.548978   -1.941238
H       2.902646   -3.262609   -0.531645
H       1.665309   -2.526563    1.644741
H       0.211051   -0.365802    2.251847
H       2.905034   -0.672064    1.880866
H       2.577318    0.760745    0.840394
