19

C       0.014186    1.398603   -0.022834
O      -0.008810   -0.006466    0.005820
C       0.660120   -0.585625   -1.093688
C       0.582136   -2.072713   -0.980269
C      -0.028015   -2.817885   -0.010072
N       0.194206   -4.131357   -0.376251
C       0.917671   -4.124772   -1.535159
C       1.350507   -5.367914   -2.238658
N       1.166563   -2.891522   -1.922572
H       1.043047    1.792297    0.005144
H      -0.478434    1.798318   -0.923896
H      -0.523362    1.753972    0.859835
H       0.207735   -0.252173   -2.044242
H       1.715286   -0.261635   -1.123117
H      -0.577804   -2.544463    0.873040
H      -0.121666   -4.944900    0.123990
H       0.496822   -5.983218   -2.546108
H       1.909405   -5.084835   -3.131318
H       1.996865   -5.990946   -1.609406
