14

N      -0.096074    1.518963    0.226094
C       0.011291    0.074840    0.035949
C       0.717927   -0.415690   -1.257902
C      -0.097613   -0.144550   -2.507685
F      -0.286530    1.173909   -2.719345
F       0.508187   -0.637432   -3.592620
F      -1.315121   -0.705408   -2.426649
C       0.699776   -0.512056    1.196607
N       1.267213   -0.982974    2.085332
H       0.827585    1.939724    0.266995
H      -0.578883    1.930515   -0.564979
H      -1.007244   -0.332051    0.029127
H       1.692177    0.068416   -1.367925
H       0.881619   -1.496231   -1.214226
