20

C       0.004651    1.573806    0.044914
C       1.467640    2.011066   -0.191933
N       2.119098    0.910649   -0.944519
C       2.579159   -0.258449   -0.177911
C       2.662414   -0.339378    1.334419
O       1.485261    0.038350    2.026656
C       0.307958   -0.522237    1.469484
C       0.058015    0.024831    0.060839
C       1.253539   -0.279175   -0.850931
H      -0.418832    1.991408    0.962987
H      -0.618939    1.908218   -0.790409
H       1.528265    2.917212   -0.801983
H       1.984866    2.211213    0.750430
H       3.416925   -0.765638   -0.656051
H       2.933559   -1.379388    1.588303
H       3.457588    0.309166    1.719498
H       0.373950   -1.623267    1.448269
H      -0.503676   -0.243992    2.149280
H      -0.860567   -0.419195   -0.334106
H       1.091027   -0.844765   -1.764648
