21

C      -0.026089    1.480098    0.120261
C      -0.046785   -0.046960   -0.021415
N      -1.371875   -0.634170    0.008644
C      -2.234350   -0.606071    1.175968
C      -3.506071   -1.298159    0.647023
N      -3.426560   -1.032443   -0.777240
C      -4.350443   -1.630307   -1.710776
C      -2.112767   -0.779645   -1.151679
O      -1.691812   -0.700165   -2.289731
H       1.003880    1.848089    0.077381
H      -0.589631    1.947513   -0.692515
H      -0.455622    1.808134    1.072421
H       0.388359   -0.335419   -0.981546
H       0.554950   -0.509248    0.770933
H      -1.789613   -1.140209    2.021851
H      -2.454496    0.421855    1.500715
H      -3.485847   -2.381077    0.852692
H      -4.419459   -0.887711    1.088822
H      -5.353893   -1.208043   -1.588694
H      -3.988657   -1.415682   -2.717779
H      -4.418082   -2.722029   -1.583826
