15

O      -0.051100    0.018569    0.277549
C      -0.036739    1.200768    0.063589
N      -1.145940    2.025422   -0.131563
C      -0.773493    3.406170    0.242228
C      -0.698051    3.470483    1.763957
C       0.532139    3.143668    2.177104
C       1.463055    3.005717    1.021352
C       0.710293    3.396238   -0.190943
N       1.145376    2.006673   -0.094038
H      -2.018862    1.641421    0.206010
H      -1.408799    4.141708   -0.250806
H      -1.576104    3.567562    2.392284
H       0.837211    2.970695    3.201470
H       2.529177    3.157416    1.137788
H       1.085286    4.007368   -1.004250
