23

C       0.078050    1.535843   -0.131834
C       0.034375    0.025331    0.125718
O       0.596323   -0.297037    1.389537
C      -1.379961   -0.554885    0.044099
O      -2.158398   -0.059896    1.141277
C      -2.149783   -0.503021   -1.304304
C      -2.646261   -1.954863   -1.042329
C      -2.671465   -2.934813   -2.204028
C      -1.530177   -2.095680    0.033375
H       1.104971    1.897145   -0.037131
H      -0.287373    1.786363   -1.133659
H      -0.527764    2.078244    0.603692
H       0.657876   -0.479127   -0.622930
H      -0.113253   -0.146968    2.028597
H      -2.389415    0.856329    0.951895
H      -2.900174    0.285948   -1.413328
H      -1.465123   -0.455991   -2.158454
H      -3.624995   -1.925341   -0.554620
H      -1.697439   -2.976789   -2.705657
H      -2.912769   -3.948062   -1.863591
H      -3.419369   -2.648921   -2.952384
H      -0.634019   -2.582953   -0.362054
H      -1.795365   -2.550818    0.988994
