16

N      -0.051449    1.235451    0.332819
C       0.026575    0.020859   -0.001672
O       1.217165   -0.608555   -0.235130
C       1.160432   -1.810612   -1.001901
O       0.279851   -2.740120   -0.463845
C      -1.063784   -2.291537   -0.548145
C      -1.821814   -2.627267    0.738632
O      -1.699303   -1.264799    1.206415
C      -1.226540   -0.823723   -0.090153
H       0.882079    1.648251    0.399525
H       0.892451   -1.558296   -2.041076
H       2.162838   -2.237446   -0.962773
H      -1.507000   -2.573895   -1.509606
H      -2.869508   -2.916705    0.590006
H      -1.319491   -3.344274    1.394011
H      -2.001600   -0.260417   -0.620656
