16

O      -0.241572    1.525522   -0.188528
C      -0.010244    0.148703    0.004370
C      -1.323919   -0.711368    0.079159
O      -2.459882   -0.002148   -0.338740
C      -0.743837   -1.631019   -1.021575
C      -0.747796   -3.123637   -1.053963
N      -1.485640   -2.355841   -2.049892
C       0.369902   -0.646673   -1.270221
O       1.147341   -0.411902   -2.150897
H       0.249086    1.795331   -0.975100
H       0.667670   -0.030827    0.848041
H      -1.512889   -1.192800    1.044566
H      -2.171787    0.914683   -0.466888
H       0.123266   -3.649317   -1.434905
H      -1.282636   -3.625751   -0.250627
H      -2.477252   -2.298194   -1.822045
