16

N       0.223094    1.406917   -0.097838
C       0.088245   -0.008554    0.041321
C       0.144653   -0.502217    1.504764
N      -1.331022   -0.618833    1.521110
C      -1.416509   -0.633018    0.040349
C      -2.466384    0.184705   -0.541565
C      -3.284615    0.913331   -1.035323
C      -1.411363   -1.983370   -0.538260
N      -1.358906   -3.061860   -0.953820
H       0.018650    1.706552   -1.045853
H      -0.418885    1.897159    0.518070
H       0.743519   -0.516834   -0.665943
H       0.685983   -1.450568    1.606012
H       0.539992    0.218689    2.226112
H      -1.728130   -1.429123    1.984424
H      -4.031655    1.534818   -1.465046
