17

O       0.196742    1.332289    0.295894
C       0.015938   -0.053613    0.100268
C      -0.764641   -0.817465    1.138338
C      -1.416724   -0.434349   -0.172255
C       1.129127   -0.699312   -0.626041
C       1.763184   -1.915438   -0.547012
N       2.749793   -2.020666   -1.501050
C       2.724621   -0.878741   -2.149375
N       1.761221   -0.046206   -1.665967
H       0.926071    1.443087    0.917693
H      -0.520779   -1.858867    1.314578
H      -1.057087   -0.259158    2.020292
H      -2.138033    0.374714   -0.154709
H      -1.602535   -1.212302   -0.902936
H       1.564540   -2.721606    0.142820
H       3.376574   -0.596448   -2.962676
H       1.550779    0.894525   -1.956548
