18

O       0.003960    0.039416    0.201764
C      -0.033078    1.238244    0.132235
C      -1.279901    2.094551   -0.134119
C      -0.743653    3.496676   -0.103910
C       0.574026    3.561236    0.134289
C       1.171546    2.181944    0.299294
C       1.350901    4.812207    0.220711
C       2.554419    4.931616    1.095587
N       2.709344    4.924338   -0.362255
H      -1.729994    1.810330   -1.094702
H      -2.043541    1.890651    0.628253
H      -1.372472    4.366533   -0.258942
H       1.636114    2.012016    1.278802
H       1.933964    1.929467   -0.449534
H       0.756404    5.709891    0.067420
H       2.766916    5.882435    1.576160
H       2.867560    4.059387    1.662541
H       3.028888    4.009010   -0.670606
