18

O       0.126422    1.408851   -0.379024
C       0.078145    0.045304   -0.067486
C      -1.340740   -0.630431   -0.087443
C      -2.161390   -0.535778   -1.412760
N      -1.621578   -1.862393   -1.931045
C      -0.678602   -1.703481   -3.069565
C       0.457837   -0.842371   -2.486393
C       0.421807   -0.969986   -1.158797
C      -0.724945   -1.889613   -0.746227
H       1.001029    1.747132   -0.164837
H       0.539727   -0.165182    0.908749
H      -1.901053   -0.629491    0.848091
H      -3.240272   -0.597166   -1.253497
H      -1.940733    0.332068   -2.040581
H      -0.367267   -2.695934   -3.420833
H      -1.167381   -1.199813   -3.910624
H       0.948759   -0.052836   -3.043140
H      -0.534201   -2.843312   -0.251334
