23

C      -0.702229    1.162764    0.034486
C       0.157007   -0.095215   -0.091642
C       1.303876    0.022459   -1.129501
C       2.360536   -0.902728   -0.581475
C       2.106545   -1.252158    0.677335
C       0.838310   -0.618245    1.224145
C       1.201170    0.490775    2.231432
C      -0.080237   -1.650283    1.911738
O       0.460511   -2.203239    3.103261
H      -0.108655    2.030666    0.338474
H      -1.169064    1.403636   -0.926709
H      -1.507635    1.035350    0.765736
H      -0.493806   -0.909456   -0.438903
H       0.974770   -0.245116   -2.140498
H       1.685235    1.052554   -1.196949
H       3.234850   -1.201001   -1.150395
H       2.757495   -1.867391    1.292231
H       1.858888    1.240294    1.781563
H       0.305161    0.998181    2.604377
H       1.713405    0.057322    3.094096
H      -1.014981   -1.162545    2.213460
H      -0.338692   -2.442996    1.193231
H       1.182496   -2.788064    2.854171
