18

C      -0.027798    1.556364    0.001084
C       0.099893    0.035291    0.014619
C       0.797174   -0.524532   -1.247920
C       1.073406   -2.000874   -1.151232
C       1.125315   -2.660530    0.004357
C       0.954370   -1.996812    1.346428
C       0.814540   -0.480016    1.259253
O       1.236410    0.249701    2.126129
H       0.958891    2.028772   -0.001131
H      -0.572307    1.889876   -0.887854
H      -0.556262    1.914771    0.887514
H      -0.901639   -0.421775    0.041821
H       0.171843   -0.313121   -2.123873
H       1.736049    0.023099   -1.420673
H       1.239163   -2.534710   -2.083580
H       1.322528   -3.729601    0.013936
H       0.057380   -2.386937    1.853117
H       1.790674   -2.220376    2.018303
