23

C       0.127414    1.364426   -0.548689
C       1.454467    1.584811    0.243975
C       1.273653    0.200114    0.849961
C      -0.114768    0.042936    0.246527
C       2.059818   -0.596865    1.561281
C       3.473707   -0.264120    2.017298
C       3.833581   -1.388950    3.010164
C       3.047096   -2.603221    2.484756
C       1.701350   -1.995402    2.040063
H      -0.633514    2.138988   -0.432689
H       0.289909    1.197596   -1.615849
H       2.357818    1.741078   -0.355587
H       1.397521    2.401229    0.974291
H      -0.928776    0.115800    0.977871
H      -0.288395   -0.859229   -0.350513
H       4.161794   -0.284325    1.160169
H       3.554125    0.736196    2.454994
H       4.909757   -1.568910    3.082628
H       3.478130   -1.126699    4.014196
H       3.565646   -3.032736    1.618772
H       2.935054   -3.399412    3.225969
H       1.016328   -1.938458    2.898091
H       1.190084   -2.587802    1.274121
