15

C       0.051468    1.514452    0.042963
C       0.026858   -0.002620    0.019406
O       1.050577   -0.670756    0.026333
C      -1.271358   -0.656539   -0.008009
C      -2.586827   -0.242744   -0.022721
N      -3.444109   -1.311258   -0.048111
C      -2.651096   -2.366422   -0.048558
O      -3.043854   -3.643020   -0.069466
N      -1.345383   -2.049038   -0.025274
H       1.088113    1.852083    0.040194
H      -0.471592    1.924325   -0.827272
H      -0.454660    1.893458    0.937142
H      -2.960115    0.770257   -0.016457
H      -4.010045   -3.631659   -0.083839
H      -0.541782   -2.656751   -0.020672
