15

C       0.022438    1.532620   -0.097452
N       1.359978    2.068997    0.203828
C       2.359333    1.300841    0.327787
N       2.390438   -0.095679    0.182437
C       1.136454   -0.684517    0.106888
C      -0.028875    0.031663   -0.032366
C      -1.027435   -0.966550   -0.082524
N      -0.524568   -2.194367    0.013812
N       0.818895   -1.997833    0.125132
H      -0.683528    1.997156    0.603756
H      -0.265982    1.910248   -1.089830
H       3.337803    1.726213    0.549608
H       3.146794   -0.586477    0.634752
H      -2.096162   -0.842110   -0.183997
H       1.424579   -2.795775    0.207776
