19

C      -0.145461    1.515310    0.133833
C       0.039252   -0.009064    0.028565
C       0.814290   -0.407188   -1.238019
N       2.202337    0.034442   -1.134666
C       2.855052   -0.234208    0.043248
C       2.218307   -0.541566    1.197193
C       0.771054   -0.552066    1.247006
N       0.027552   -0.912902    2.233575
O       0.796381   -1.341559    3.336251
H       0.819376    2.028184    0.178525
H      -0.694560    1.899659   -0.733007
H      -0.708306    1.763771    1.036827
H      -0.946872   -0.480460   -0.013019
H       0.767306   -1.501376   -1.360154
H       0.363321    0.053104   -2.122488
H       2.753405   -0.038193   -1.974914
H       3.937288   -0.160370   -0.001928
H       2.782691   -0.738886    2.096101
H       0.113518   -1.561676    3.977286
