18

C       0.041850    1.512564    0.012603
C      -0.032580    0.023779   -0.060280
C      -0.050726   -0.782516   -1.134166
C      -0.040089   -2.226522   -0.742004
N       1.205078   -2.578195    0.006916
C      -0.066867   -2.275976    0.734272
C      -0.742649   -3.306641    1.592635
C      -0.075021   -0.815369    1.178483
O      -0.141583   -0.418590    2.318832
H       0.972404    1.828723    0.497750
H      -0.004228    1.969159   -0.979159
H      -0.774675    1.909785    0.624782
H      -0.013973   -0.452989   -2.166753
H      -0.514317   -2.982467   -1.357949
H       1.312636   -3.594691    0.003869
H      -0.699003   -4.297692    1.129644
H      -0.262017   -3.357035    2.574511
H      -1.794756   -3.051969    1.755190
