21

C       0.881772    1.302533   -0.059658
O       0.985839   -0.073743   -0.334086
C      -0.129993   -0.580864   -1.042281
C       0.068830   -2.075248   -1.192543
C      -0.593642   -2.923780   -2.309561
C       0.346412   -2.314697   -3.372653
C       1.177574   -2.679038   -2.110443
C       2.658219   -2.706032   -1.904088
O       0.422672   -3.968091   -2.060060
H       0.818051    1.901338   -0.982519
H      -0.002792    1.530476    0.556184
H       1.779463    1.596337    0.489838
H      -1.060724   -0.382347   -0.482721
H      -0.227845   -0.068595   -2.012120
H       0.038425   -2.576110   -0.221658
H      -1.629688   -3.249596   -2.405439
H       0.530604   -2.958661   -4.233638
H       0.234753   -1.265238   -3.652331
H       3.045470   -1.683385   -1.884718
H       2.897297   -3.179545   -0.947249
H       3.154810   -3.262204   -2.704913
