18

C      -0.064288    1.446602    0.072116
C       0.055737   -0.036139   -0.066050
C      -0.478593   -0.967681   -1.190908
O       0.662674   -1.598867   -1.817015
C       0.945786   -2.126391   -0.500038
C      -0.535837   -2.024484   -0.059895
N      -0.248029   -1.009238    1.049727
C       1.140535   -0.918487    0.459982
C       2.348132   -0.515552    1.241881
H       0.464074    1.954892   -0.742280
H      -1.113058    1.760828    0.046460
H       0.359966    1.787574    1.020894
H      -1.261502   -0.651994   -1.878205
H       1.610503   -2.988314   -0.485180
H      -1.255710   -2.828103    0.076465
H       2.132348    0.346043    1.880256
H       2.687862   -1.330666    1.889560
H       3.171715   -0.247423    0.570624
