17

N       0.241687    1.337494   -0.060907
C      -0.005054   -0.045944   -0.013205
C      -1.153728   -0.780712    0.189506
C      -0.774565   -2.154273    0.227397
C       0.586413   -2.225152    0.046009
C       1.526973   -3.385912   -0.052407
C       2.092383   -3.428947   -1.463158
O       3.202578   -3.064225   -1.758916
N       1.042786   -0.925597   -0.100578
H       0.551666    1.648087   -0.977176
H      -0.593453    1.856959    0.178217
H      -2.149732   -0.377462    0.290680
H      -1.430840   -3.000506    0.365617
H       2.362101   -3.312743    0.654059
H       0.969642   -4.306049    0.149748
H       1.366573   -3.766148   -2.236739
H       2.008479   -0.656318   -0.189879
