16

C      -0.020083    1.457119    0.125417
N       0.019258    0.011541    0.065698
C       0.525345   -0.586559   -0.930918
O       0.570391   -1.937602   -1.004102
C       0.007279   -2.630376    0.121726
C       0.130807   -4.060569   -0.106282
C       0.214757   -5.248395   -0.258646
C       1.111580    0.008362   -2.102159
C       1.594215    0.539139   -3.066812
H       0.509315    1.792319    1.024667
H       0.416774    1.958701   -0.747148
H      -1.061249    1.782333    0.232598
H       0.528455   -2.325571    1.036542
H      -1.040970   -2.335053    0.245731
H       0.291201   -6.298434   -0.397789
H       2.023439    0.997653   -3.923991
