15

N       0.023110    1.484736   -0.043800
C       0.022747    0.036821   -0.011367
C       0.843148   -0.477893    1.233084
C       2.229532    0.007304    1.135349
C       3.349507    0.420456    1.013632
C       0.218862   -0.039082    2.489101
C      -0.309729    0.298567    3.511060
C       0.842184   -1.959252    1.180272
N       0.815173   -3.110950    1.103752
H       0.910910    1.835756   -0.386065
H      -0.703671    1.824459   -0.662086
H      -1.002391   -0.321328    0.112095
H       0.453131   -0.458329   -0.894687
H       4.347875    0.774701    0.930517
H      -0.771247    0.604705    4.417608
