23

C       0.153079    1.551825    0.207212
C       0.032496    0.043730   -0.022508
C      -1.391906   -0.378585   -0.368950
O       0.861723   -0.391650   -1.106584
C       2.189274   -0.711723   -0.790089
C       2.809457   -1.414600   -2.019738
C       3.983507   -0.502848   -2.429451
C       3.607848    0.821128   -1.757389
O       2.995222    0.427639   -0.530683
H       1.181870    1.823405    0.447291
H      -0.147410    2.094100   -0.695723
H      -0.499845    1.865895    1.028711
H       0.352175   -0.484296    0.890533
H      -1.716561    0.108958   -1.293865
H      -1.449727   -1.460590   -0.515003
H      -2.084081   -0.095235    0.429812
H       2.213616   -1.307728    0.132835
H       3.127720   -2.431536   -1.782041
H       2.046138   -1.471537   -2.798468
H       4.927027   -0.873449   -2.017742
H       4.097936   -0.413551   -3.512472
H       4.460068    1.460376   -1.514517
H       2.902208    1.395011   -2.375865
