20

C       0.079029    1.533225   -0.222280
N       0.052069    0.082620   -0.067036
C      -1.092557   -0.468932    0.719844
C      -0.254452   -1.706350    1.163485
C       0.671708   -0.451384    1.184175
C      -0.527741   -0.076329    2.138401
C      -0.637442   -1.520586    2.649698
C      -1.985604   -2.037224    3.128376
O       0.386123   -1.807547    3.588733
H       1.077174    1.839203   -0.553347
H      -0.632963    1.825105   -1.001719
H      -0.165316    2.097487    0.693799
H      -2.124885   -0.441234    0.367963
H      -0.093328   -2.611555    0.577365
H       1.739357   -0.405745    1.393424
H      -0.683815    0.842340    2.703021
H      -2.790893   -1.780794    2.433843
H      -1.970299   -3.130592    3.223962
H      -2.226232   -1.618523    4.110538
H       0.358148   -2.749819    3.785871
