18

C      -0.046094    1.500817    0.038716
C       0.152735    0.014320   -0.028522
O      -0.775683   -0.801826    0.725498
C       0.624789   -0.851609    1.056427
C       1.335799   -2.064999    0.488583
C       0.850912   -2.116655   -0.976922
C       0.479913   -0.659134   -1.359224
O      -0.569778   -0.556402   -2.304643
H       0.874500    2.027798   -0.234644
H      -0.826108    1.806489   -0.665971
H      -0.342533    1.808210    1.044371
H       0.876937   -0.464097    2.041090
H       2.418633   -1.901397    0.550791
H       1.113355   -2.982925    1.041699
H       1.589821   -2.545067   -1.657185
H      -0.052855   -2.727476   -1.051480
H       1.332620   -0.145897   -1.820126
H      -1.353003   -0.932663   -1.884646
