15

O      -0.159591    0.003118    0.262078
C      -0.033467    1.198439    0.099754
N       1.145658    1.840092   -0.122533
C       2.417259    1.170729   -0.180730
C       3.269687    1.286361   -1.507297
C       4.349030    1.993238   -0.684264
O       3.731769    3.148609   -0.095039
C       3.565429    1.880275    0.556155
H      -0.886759    1.904772    0.116555
H       1.150502    2.842192   -0.238576
H       2.261810    0.135934    0.122787
H       3.569875    0.307660   -1.887932
H       2.833074    1.880385   -2.313196
H       5.421156    2.027735   -0.831529
H       3.862871    1.813394    1.596222
