20

N      -0.069579    1.249302    0.357731
C      -0.040015    0.033795   -0.004760
O       1.154343   -0.574837   -0.271495
C       1.221581   -1.794897   -1.021973
C       0.106375   -2.769155   -0.676509
C      -1.232465   -2.061787   -0.884237
C      -1.284880   -0.801919   -0.037625
C      -2.049612   -0.852021    1.284234
C      -2.600271   -0.081989    0.121385
H       0.877124    1.631140    0.372986
H       1.188333   -1.549603   -2.093531
H       2.210057   -2.207102   -0.803276
H       0.196073   -3.656233   -1.312717
H       0.207303   -3.094900    0.365359
H      -1.343116   -1.805990   -1.947467
H      -2.073848   -2.714057   -0.629765
H      -2.511350   -1.797046    1.552852
H      -1.637420   -0.285202    2.110018
H      -2.555139    0.998493    0.169151
H      -3.449195   -0.496532   -0.412784
