11

O       0.124310    1.321049    0.057059
C       0.081309   -0.016324    0.045124
N       0.084722   -0.723915   -1.070063
N       0.032794   -2.013568   -0.640781
C      -0.002414   -2.130734    0.694992
C       0.027219   -0.839253    1.206552
C       0.008036   -0.442458    2.561379
N      -0.007761   -0.118825    3.673353
H       0.155748    1.623364   -0.859946
H       0.025170   -2.750715   -1.324588
H      -0.045085   -3.083857    1.196861
