16

C       0.219330   -1.212647   -0.007844
C       0.134964   -0.012796    0.001798
C       0.029154    1.412883    0.025545
C       0.425889    2.204188    1.281911
C       1.021712    1.481487    2.478510
N       2.394454    1.017310    2.324214
C       2.983634    1.151016    1.219763
O       2.540845    1.700841    0.052024
C       1.273574    2.291208    0.055844
H       0.298781   -2.271325   -0.022579
H      -0.799482    1.825865   -0.542964
H      -0.201201    3.059763    1.509197
H       1.000838    2.156236    3.341738
H       0.408656    0.613812    2.752101
H       4.004229    0.802757    1.080895
H       1.273743    3.185475   -0.556620
