18

C      -0.124049    1.496282    0.006943
C      -0.047287    0.001132    0.061958
C       0.880404   -0.847920   -0.913303
O       1.854952   -1.050251    0.142483
C       0.751636   -0.892823    1.043506
C      -0.342178   -1.924701    0.625286
C      -0.030949   -2.087521   -0.903868
C      -1.440831   -1.503748   -1.139230
N      -1.306673   -0.818843    0.193592
H       0.881244    1.929464   -0.014458
H      -0.655589    1.826202   -0.893290
H      -0.658365    1.891095    0.875933
H       1.307748   -0.487023   -1.847916
H       1.016166   -0.702666    2.082051
H      -0.718168   -2.746460    1.231281
H       0.343691   -3.000670   -1.366135
H      -1.599349   -0.838643   -1.996329
H      -2.243781   -2.244794   -1.099729
