11

N       0.014678   -1.074386    0.411805
C      -0.000156    0.053678    0.163955
C      -0.007272    1.478863   -0.167592
C       1.390792    2.074593   -0.204307
C       1.610025    3.490055    0.111491
O       1.944599    2.459921    1.045430
H      -0.489469    1.605924   -1.144430
H      -0.611003    2.015221    0.571712
H       2.087120    1.572103   -0.875365
H       2.453239    4.016634   -0.331238
H       0.763287    4.115940    0.390471
