13

C       0.048508   -1.141998   -0.004988
C       0.054066    0.058062    0.001927
C       0.013685    1.509570    0.010837
O       1.367273    2.008099   -0.001982
C       1.477358    3.331248    0.004174
N       2.664212    3.929989   -0.006369
N       2.276488    5.203640    0.005372
N       0.974542    5.400735    0.021760
N       0.436867    4.201923    0.021300
H       0.049290   -2.204224   -0.011180
H      -0.524323    1.895353   -0.862906
H      -0.503830    1.885087    0.901273
H       2.935070    5.968110    0.001961
