18

O      -0.087815   -0.012444    0.126557
C      -0.013815    1.195178    0.111896
C       1.247325    1.954180    0.079405
C       1.227078    3.293872    0.007181
C       2.499835    4.087893   -0.053041
C       3.626863    3.366248    0.700861
N       3.782755    1.962425    0.277663
C       3.353864    0.943752    1.240261
C       2.539307    1.220806    0.026103
H      -0.928566    1.831541    0.114154
H       0.274071    3.818868   -0.010254
H       2.781907    4.238949   -1.105058
H       2.355770    5.087804    0.369106
H       4.581256    3.875499    0.529601
H       3.414443    3.432647    1.776905
H       3.966401    0.047771    1.289665
H       2.961150    1.284627    2.196609
H       2.607504    0.506519   -0.792371
