18

C      -0.029664    1.516904    0.010185
C      -0.007966    0.010069    0.010099
C      -0.020094   -0.707576   -1.183745
C       0.000758   -2.098195   -1.152708
N       0.032429   -2.807577   -0.024517
C       0.044096   -2.119375    1.122219
C       0.025361   -0.726906    1.204962
C       0.040502   -0.024383    2.540779
O       0.073379   -0.975977    3.586596
H       0.855058    1.932298    0.507437
H      -0.056754    1.910055   -1.008695
H      -0.904105    1.907109    0.544580
H      -0.045730   -0.184917   -2.134894
H      -0.008498   -2.666241   -2.080430
H       0.069825   -2.702284    2.035846
H       0.914789    0.647694    2.589041
H      -0.849854    0.622965    2.622101
H       0.084190   -0.502154    4.422373
