14

N       0.005905    1.316342    0.009614
C       1.156161    2.066039    0.002211
N       2.353735    1.567110   -0.012422
C       2.435983    0.206585   -0.020599
C       3.507553   -0.665333   -0.036012
C       2.915445   -1.959911   -0.037072
N       1.576888   -1.976704   -0.023865
C       1.243308   -0.655733   -0.013382
C       0.022864   -0.052106    0.002045
H      -0.879741    1.798185    0.021044
H       1.006242    3.140807    0.009513
H       4.559224   -0.424843   -0.045209
H       3.463134   -2.896920   -0.047602
H      -0.930120   -0.565561    0.008759
