22

C      -0.024431    1.537209   -0.012955
C       0.036365    0.001577   -0.049398
C       0.669110   -0.498958   -1.356037
C       0.736454   -0.540885    1.179230
C       2.250388   -0.296784    1.477140
C       2.182852   -1.578605    2.302424
C       0.979192   -2.057807    1.587266
N       0.858285   -1.657441    3.016865
C       0.136877   -0.413863    2.595649
H       0.981048    1.971310   -0.052400
H      -0.586672    1.925075   -0.868309
H      -0.510082    1.899867    0.898702
H      -0.996998   -0.375176   -0.017942
H       1.686625   -0.112875   -1.480941
H       0.719744   -1.592281   -1.384086
H       0.083847   -0.168202   -2.220064
H       2.875361   -0.445523    0.592892
H       2.525063    0.641556    1.971796
H       2.991378   -2.148224    2.741291
H       0.675695   -3.019251    1.193690
H       0.365197    0.483842    3.183541
H      -0.938546   -0.613327    2.626703
