20

C      -0.072487    1.548423   -0.027081
C       0.007952    0.016553    0.068821
C       0.784993   -0.411931    1.314131
O      -1.300868   -0.530047    0.209535
C       0.674094   -0.558605   -1.194191
C       0.582240   -2.095741   -1.427128
C      -0.105026   -1.740576   -2.762498
O      -0.462430   -2.329476   -3.743727
N      -0.131576   -0.393884   -2.425305
H       0.922085    2.001463   -0.098943
H      -0.650165    1.854912   -0.906188
H      -0.573430    1.948864    0.858164
H       0.292135   -0.025552    2.210287
H       0.822814   -1.501692    1.391826
H       1.808843   -0.026811    1.289201
H      -1.755247   -0.386344   -0.630332
H       1.693120   -0.168046   -1.297444
H       1.529237   -2.624609   -1.540003
H      -0.065726   -2.615355   -0.720757
H      -0.189236    0.395509   -3.054843
