22

C      -0.185079    1.645153    0.454504
O       0.053315    0.280430    0.179642
C       0.684178   -0.444455    1.209354
C       2.130836   -0.013894    1.399300
C      -0.190325   -0.806770    2.473688
C      -1.123263   -1.620956    1.531224
C       0.346427   -1.969028    1.157326
N       0.735933   -2.000001    2.624824
C       0.308121   -3.125058    3.445416
H       0.742885    2.227019    0.535906
H      -0.767576    2.038344   -0.382346
H      -0.763023    1.781776    1.380445
H       2.193901    1.007276    1.788870
H       2.634231   -0.678685    2.098429
H       2.646096   -0.034515    0.433546
H      -0.450278   -0.180154    3.330155
H      -1.707533   -2.413652    1.994805
H      -1.708983   -1.072231    0.796527
H       0.721476   -2.709401    0.447299
H       0.963807   -3.975783    3.230938
H       0.451255   -2.856925    4.497706
H      -0.731604   -3.464812    3.324818
