17

C      -1.022935    1.141993    0.184878
C      -0.003883    0.024631    0.011091
C       0.870300   -0.058000   -1.286074
C       2.120338   -0.385661   -0.432559
O       3.300464    0.311985   -0.787658
C       4.378664    0.139067    0.015293
O       5.408500    0.708191   -0.177952
C       1.320048    0.133971    0.785084
O       1.653006    0.624311    1.823341
H      -0.571732    2.118116   -0.017783
H      -1.870428    1.009251   -0.494246
H      -1.404690    1.156292    1.209674
H      -0.461631   -0.950569    0.220293
H       0.585648   -0.795146   -2.036261
H       0.983636    0.922005   -1.755399
H       2.302993   -1.465669   -0.363101
H       4.195948   -0.575083    0.838183
