15

O       0.027254   -0.006800    0.006684
C       0.009070    1.202660    0.010676
C      -1.209568    2.074395    0.030781
C      -0.862279    3.370035    0.031071
C       0.629001    3.515401    0.012155
O       1.249654    4.553627    0.007937
C       1.183362    2.127355   -0.000451
C       2.477496    1.780059    0.723191
C       2.458595    1.785949   -0.759568
H      -2.209254    1.657779    0.042533
H      -1.519572    4.230789    0.043160
H       2.959666    2.605098    1.235611
H       2.482226    0.823940    1.234621
H       2.450177    0.833925   -1.278537
H       2.927620    2.615083   -1.277544
