21

C      -0.193881    1.304267    0.120599
C       1.204780    1.970474    0.088120
C       2.163299    0.950355   -0.588287
C       2.450820    1.207241   -2.108072
C       3.874316    0.742046   -2.287561
C       4.489805    0.560106   -1.120458
C       3.586207    0.874464    0.044825
C       1.396304   -0.348515   -0.421472
C       0.133094   -0.160682   -0.047177
H      -0.738275    1.519611    1.047137
H      -0.837609    1.653956   -0.699070
H       1.205371    2.941275   -0.415462
H       1.540247    2.142892    1.116490
H       1.738534    0.679512   -2.752717
H       2.358743    2.275099   -2.355724
H       4.330318    0.616292   -3.263799
H       5.525182    0.261760   -0.996254
H       3.865955    1.834024    0.504509
H       3.630723    0.127671    0.847001
H       1.855907   -1.307112   -0.640694
H      -0.602588   -0.946049    0.090365
