17

C      -0.024069    1.544131   -0.000021
C      -0.007891   -0.009313   -0.000321
C       0.749897   -0.527891    1.252782
C      -1.389925   -0.513713    0.019246
C      -2.522977   -0.910064    0.063715
C       0.668585   -0.489531   -1.212429
C       1.250432   -0.870490   -2.202345
C       1.902565   -1.300250   -3.316847
C       2.482199   -1.680964   -4.305309
H       1.000328    1.925562   -0.014482
H      -0.553798    1.923989   -0.875662
H      -0.528335    1.905376    0.900208
H       0.248249   -0.173689    2.157261
H       0.769722   -1.619250    1.266680
H       1.778029   -0.156455    1.244377
H      -3.522618   -1.267933    0.089340
H       2.990986   -2.016220   -5.174672
