19

C       0.180853    1.425375    0.006723
C      -0.008036   -0.094253   -0.000021
C      -1.477818   -0.479948    0.013009
O      -1.557184   -1.920073    0.005517
C      -2.799389   -2.439411    0.016930
O      -3.809391   -1.790421    0.032019
C      -2.701027   -3.965534    0.008084
C      -3.986062   -4.643080    0.013750
C      -5.034499   -5.227120    0.018273
H       1.242655    1.686199   -0.002808
H      -0.283989    1.889275   -0.869894
H      -0.265634    1.879148    0.898058
H       0.466120   -0.531167   -0.886342
H       0.484329   -0.541234    0.871224
H      -1.991187   -0.100526    0.903002
H      -2.009430   -0.090381   -0.861774
H      -2.109051   -4.253536   -0.869452
H      -2.096987   -4.262369    0.874456
H      -5.969467   -5.730196    0.022717
