15

N       0.039719    1.207668    0.560076
C      -0.039496   -0.105614    0.228578
N       1.134217   -0.787071    0.149361
H       1.963376   -0.273173   -0.104537
H       1.027413   -1.712525   -0.249948
C      -1.250816   -0.762926   -0.024370
C      -2.640463   -0.184905    0.117943
C      -2.826619    0.685769    1.271561
N      -2.911053    1.418195    2.164141
N      -1.110014   -2.046092   -0.470578
O      -2.142538   -2.692520   -0.700341
H       0.883818    1.516206    1.018027
H      -0.798873    1.666229    0.887302
H      -2.951693    0.368846   -0.778612
H      -3.303244   -1.059837    0.176698
