13

O      -0.050380   -0.040448    0.000221
C      -0.010494    1.168821    0.009354
N       1.144019    1.909402    0.002956
C       1.251146    3.375648    0.013361
C       2.799503    3.564384   -0.002066
N       3.395418    2.216638   -0.018883
C       2.438888    1.380445   -0.015092
H      -0.913232    1.809107    0.024012
H       0.764365    3.808897   -0.865229
H       0.783802    3.794858    0.909153
H       3.136664    4.121287   -0.881726
H       3.155833    4.107845    0.878438
H       2.545734    0.303083   -0.024617
