15

N       0.046457    1.299137   -0.011253
C      -0.021398    0.032866   -0.003141
N      -1.226649   -0.648212    0.011136
C      -1.478056   -2.101875    0.000280
C      -2.975646   -1.753486   -0.055426
C      -4.106473   -2.391278   -0.729253
O      -3.987451   -2.365613    0.700174
C      -2.588481   -0.272882    0.013248
O      -3.153960    0.776191    0.043520
H       1.020566    1.596859   -0.019562
H       0.829527   -0.660473   -0.005413
H      -1.071666   -2.618053   -0.874439
H      -1.175582   -2.611715    0.919686
H      -4.897105   -1.767401   -1.140853
H      -3.970741   -3.367211   -1.191957
