21

C       0.116340    1.558419    0.113806
C      -0.043326    0.039311   -0.077712
C       0.670485   -0.493273   -1.280684
N       0.093209   -0.750568   -2.437596
C       1.092474   -1.183184   -3.282163
C       0.809759   -1.579568   -4.694923
C       2.288378   -1.185079   -2.615350
N       2.017305   -0.746778   -1.332141
C       3.004242   -0.553910   -0.289705
H       1.162353    1.838526    0.276481
H      -0.239169    2.093435   -0.771277
H      -0.459920    1.902845    0.978207
H       0.283629   -0.483546    0.830010
H      -1.100228   -0.202377   -0.216232
H       0.373945   -0.747412   -5.258810
H       1.723143   -1.896273   -5.206307
H       0.090887   -2.405255   -4.737322
H       3.287274   -1.458940   -2.915031
H       3.501354    0.419312   -0.374588
H       2.528883   -0.615868    0.690677
H       3.763032   -1.338186   -0.351443
