13

N      -0.053957    1.336747    0.042469
C       0.087908    0.000825    0.174507
N       1.067645   -0.626319   -0.376272
C       1.156777   -1.982639   -0.240348
C       2.097315   -2.854304   -0.719320
C       1.654387   -4.114105   -0.253214
N       0.547622   -4.039004    0.446852
O       0.223201   -2.675576    0.458696
H       0.664418    1.859639   -0.432084
H      -0.753357    1.835548    0.560899
H      -0.695111   -0.483296    0.763064
H       2.963319   -2.612982   -1.310512
H       2.105411   -5.085589   -0.403137
