22

C       1.608655   -0.420158    0.865701
C       0.550868   -1.534977    0.826343
N      -0.696521   -1.020375    0.275174
C      -1.939440   -1.703860    0.628742
C      -1.666858   -0.326101    1.128808
C      -1.463579   -0.059235    2.605167
C       1.094238   -2.687740   -0.036984
C       0.748123   -2.696614   -1.511465
O       1.803097   -3.528314    0.467194
H       2.557285   -0.815031    1.237914
H       1.763995    0.000665   -0.132226
H       1.285836    0.389556    1.525474
H       0.446107   -1.956846    1.837136
H      -2.638527   -1.881679   -0.184739
H      -1.884143   -2.508679    1.362047
H      -2.152943    0.495941    0.604546
H      -1.009710   -0.905078    3.126697
H      -0.835692    0.822631    2.770880
H      -2.432864    0.135775    3.076243
H       0.889829   -1.707278   -1.955579
H       1.357641   -3.443385   -2.021944
H      -0.312355   -2.938264   -1.639320
