15

N      -0.067836   -1.167560   -0.057825
C      -0.028857   -0.012845   -0.027991
C       0.011489    1.449645    0.027543
C      -0.703829    1.965033    1.300706
O      -0.526176    3.356968    1.420730
C       0.821298    3.721785    1.661615
C       1.794777    2.998292    0.775182
C       1.437769    1.971154    0.011021
H      -0.530654    1.824446   -0.851773
H      -1.779343    1.785237    1.241299
H      -0.307572    1.431552    2.177852
H       0.876833    4.802688    1.489676
H       1.084837    3.552891    2.721394
H       2.821135    3.354460    0.784032
H       2.147998    1.468190   -0.636384
