19

O      -0.141846    1.484246   -0.008433
C      -0.047095    0.088471   -0.055531
C      -0.493199   -0.722358    1.135354
C      -1.340477   -0.674321   -0.124142
C      -2.642793    0.055899   -0.126388
C      -3.538671    0.026311   -1.329707
C      -3.965402   -0.708292   -0.064558
C      -3.990145   -2.140909   -0.038081
C      -4.016001   -3.343915   -0.009057
H       0.535122    1.805474    0.595996
H       0.788741   -0.289052   -0.644799
H       0.031429   -1.638683    1.382474
H      -0.859893   -0.161832    1.989535
H      -1.328659   -1.570626   -0.736196
H      -2.629917    0.985092    0.432204
H      -4.086805    0.921945   -1.599455
H      -3.237320   -0.590776   -2.168905
H      -4.751444   -0.234020    0.516128
H      -4.042747   -4.404719    0.016079
