14

C      -0.064044    1.565365    0.014519
C       0.057934    0.059090    0.054655
C       1.347961   -0.690115   -0.199348
O       2.549809    0.039024   -0.062437
C       2.702148    0.440237    1.233402
O       3.611677    1.083663    1.643622
O       1.641063    0.019964    1.982269
C       0.739093   -0.702885    1.170604
H       0.820888    2.067211    0.410326
H      -0.206832    1.908164   -1.014544
H      -0.923633    1.893432    0.606421
H      -0.804095   -0.479656   -0.333466
H       1.436670   -1.529277   -0.876520
H       0.301748   -1.553089    1.677069
