16

C      -0.057445    1.405617   -0.033361
O      -0.002183   -0.014608    0.002784
C      -1.192763   -0.648941    0.020148
C      -1.366944   -2.009651    0.054249
N      -2.745197   -2.170273    0.060125
C      -3.317502   -0.938680    0.029806
C      -4.792619   -0.712144    0.026446
N      -2.392264    0.006868    0.005426
H       0.980541    1.743424   -0.043862
H      -0.576226    1.762864   -0.929292
H      -0.572962    1.808151    0.845097
H      -0.679496   -2.835928    0.073714
H      -3.231860   -3.050162    0.082746
H      -5.272006   -1.116974    0.925529
H      -4.979793    0.361732   -0.007293
H      -5.276625   -1.173629   -0.842305
