19

O      -0.008882    1.442933    0.014514
C       0.058078    0.038458   -0.071700
C      -1.340850   -0.576087    0.011679
C      -1.343039   -2.096689   -0.057509
O      -2.650354   -2.659538    0.147714
C      -3.503911   -2.098410    1.056059
N      -4.443639   -2.760358    1.583553
C      -3.353662   -0.611723    1.328182
N      -1.980246   -0.111324    1.249495
H      -0.699299    1.624522    0.668251
H       0.531809   -0.216056   -1.026055
H       0.689259   -0.387525    0.730322
H      -1.938117   -0.178030   -0.819512
H      -1.019563   -2.462817   -1.036230
H      -0.663088   -2.509072    0.703101
H      -4.421289   -3.728281    1.253568
H      -3.953081   -0.073833    0.581841
H      -3.785765   -0.395870    2.306042
H      -1.450676   -0.468154    2.043892
