19

C      -0.375670    1.535003   -0.028642
C       0.473965    0.277543    0.137831
N       1.177972   -0.025624   -1.101807
C       2.082113   -0.907752   -1.089262
O       2.451060   -1.620138    0.049658
C       3.504170   -2.513340   -0.276624
C       3.747934   -2.314967   -1.753030
N       4.758186   -2.994722   -2.387632
C       2.903579   -1.368205   -2.198904
H       0.253626    2.394987   -0.278170
H      -1.098593    1.405688   -0.839814
H      -0.922888    1.763041    0.892173
H       1.177788    0.405553    0.973348
H      -0.171074   -0.569012    0.418676
H       4.395872   -2.277346    0.320500
H       3.201389   -3.543563   -0.037952
H       4.998911   -3.899946   -2.012404
H       4.741748   -2.981996   -3.396328
H       2.806739   -0.971940   -3.197871
