16

N       0.017241    1.299454    0.226821
C      -0.055027   -0.061582    0.091240
N      -1.101169   -0.820238    0.207675
C      -0.594826   -2.117210    0.058399
C       0.737599   -2.050671   -0.153749
O       1.104865   -0.711677   -0.128731
C      -1.485794   -3.286172    0.116999
C      -2.651461   -3.274254    1.044970
N      -2.863457   -3.160117   -0.402717
H       0.771427    1.739922   -0.278611
H      -0.873521    1.759918    0.117113
H       1.526760   -2.758930   -0.329576
H      -1.009933   -4.236084   -0.110816
H      -2.989607   -4.206361    1.489315
H      -2.781407   -2.387396    1.657906
H      -3.016481   -2.178215   -0.628532
