17

C       0.011825    1.482616   -0.156493
C       0.001157   -0.015229   -0.041525
C      -1.114425   -0.759874   -0.050780
C      -1.085614   -2.228223    0.025560
C      -0.392699   -3.006209   -1.098376
C       0.283181   -2.829605    0.221195
O       1.400850   -1.991341    0.358645
C       1.335019   -0.643791    0.145351
O       2.361027   -0.012794    0.166132
H       0.594559    1.802672   -1.026229
H      -1.004411    1.873886   -0.249464
H       0.490418    1.937406    0.716264
H      -2.085618   -0.274956   -0.119988
H      -1.932971   -2.706027    0.505917
H      -0.773336   -3.991226   -1.343865
H      -0.029415   -2.423685   -1.937444
H       0.399912   -3.691622    0.867364
