15

C      -0.178136    1.539251   -0.081779
C       0.060017    0.056058    0.087032
O       1.107459   -0.502191   -0.778233
C       1.658999   -1.201176    0.320955
C       2.241367   -0.259453    1.350694
C       2.864640    0.991909    1.015419
N       3.396310    1.988761    0.766836
C       0.739917   -0.550844    1.319219
H       0.716541    2.127614    0.123521
H      -0.500868    1.744793   -1.107225
H      -0.977837    1.860406    0.594257
H      -0.863323   -0.503241   -0.110730
H       2.006907   -2.216881    0.173395
H       2.730385   -0.775763    2.172969
H       0.238575   -0.945540    2.192286
