15

C      -0.066769    1.497671   -0.034984
O       1.110193    0.664857    0.026556
C      -0.156039    0.040465   -0.000233
C      -0.554446   -0.971394    1.032845
C      -1.702179   -1.747183    0.463749
C      -2.036623   -1.205835   -0.918416
C      -0.510977   -1.019313   -1.035571
N      -0.302206   -2.115388    0.074468
H      -0.270999    2.078135    0.863585
H      -0.207619    2.031228   -0.974185
H      -0.256396   -1.024964    2.072864
H      -2.299570   -2.405691    1.084823
H      -2.395372   -2.007067   -1.569258
H      -2.678425   -0.324731   -1.020608
H       0.028395   -1.087548   -1.977440
