20

C       0.050880    1.495939   -0.402229
C       1.403323    2.045436    0.006146
C       2.157712    1.793142    1.076201
C       1.961485    0.817564    2.218660
C       0.642589    0.847745    2.995176
N      -0.458324    1.686474    2.520116
C      -0.608668    0.221541    2.443738
C      -0.578246   -0.457093    1.129570
C      -0.246619    0.053762   -0.058239
H      -0.713262    2.144044    0.039364
H      -0.037913    1.608289   -1.488646
H       1.784220    2.800915   -0.679916
H       3.085101    2.358464    1.143463
H       2.110716   -0.206437    1.850143
H       2.766113    0.989585    2.940905
H       0.765242    0.766900    4.074035
H      -0.995490    2.050487    3.301275
H      -1.258707   -0.247700    3.180049
H      -0.777460   -1.526003    1.186354
H      -0.195041   -0.641482   -0.893229
