15

O       0.128895    1.407144   -0.122553
C       0.029659    0.009328   -0.026206
C       0.232453   -0.559634    1.410974
C      -1.311217   -0.567344    1.575356
O      -1.677961    0.677415    2.160689
C      -1.430461   -0.539641    0.019875
C      -1.935993   -1.686722    2.286068
N      -2.447778   -2.569982    2.828585
H      -0.401296    1.780892    0.592991
H       0.673087   -0.400928   -0.805894
H       0.644606   -1.570359    1.409005
H       0.768627    0.065516    2.127016
H      -2.636019    0.774405    2.096307
H      -2.215339    0.102113   -0.387601
H      -1.514823   -1.544079   -0.401549
