18

C      -0.009850    1.542453   -0.070358
C       0.029268    0.017643    0.028428
O       0.642098   -0.438915   -1.156408
C       0.787371   -1.846601   -1.223038
C       1.566237   -2.425838   -0.040695
O       2.143236   -3.495124   -0.145393
C       1.511434   -1.638385    1.174905
C       0.758495   -0.511896    1.259021
N       0.523894    0.144850    2.435381
H       0.999382    1.961665   -0.026957
H      -0.452702    1.816015   -1.030411
H      -0.625152    1.988381    0.716752
H      -1.010050   -0.360044    0.082378
H      -0.198946   -2.341894   -1.269879
H       1.322079   -2.071261   -2.147942
H       2.042714   -2.024615    2.040440
H       1.059023   -0.142128    3.240627
H       0.299364    1.125320    2.407246
