18

C       0.037864    1.538115    0.010343
C      -0.044072    0.013601    0.003795
C      -1.480206   -0.511248    0.012395
O      -2.428805    0.251969    0.023223
C      -1.675447   -1.969249    0.007819
C      -0.709298   -2.963300   -0.003722
N      -1.348435   -4.165891   -0.003906
C      -2.715078   -3.974241    0.007449
C      -2.946661   -2.626229    0.014824
H       1.080122    1.870372    0.003600
H      -0.467042    1.958733   -0.862765
H      -0.452998    1.950452    0.895334
H       0.464920   -0.402487   -0.876069
H       0.478510   -0.410742    0.871664
H       0.367136   -2.906315   -0.011738
H      -0.891136   -5.061282   -0.011172
H      -3.389371   -4.815264    0.009114
H      -3.901372   -2.126249    0.024225
