14

N       1.107625    0.216448   -0.304290
C      -0.078020    0.573987   -0.026498
N      -1.084017   -0.378017    0.064679
C      -2.399531   -0.077230    0.357851
O      -2.798150    1.050998    0.548611
C      -3.299388   -1.286361    0.440327
C      -4.476356   -1.220902    1.325440
O      -4.610252   -1.097369   -0.082201
H       1.724025    1.026428   -0.334443
H      -0.448856    1.582723    0.163270
H      -0.804487   -1.333132   -0.110766
H      -2.854233   -2.257023    0.219662
H      -4.858891   -2.142779    1.760265
H      -4.642046   -0.303954    1.885772
