12

N       0.052799   -1.115442    0.262810
C       0.015096    0.026675    0.092883
C      -0.017602    1.489056   -0.146051
O      -0.737719    2.155256    0.881528
C       0.144884    2.997579    1.630593
C       1.449650    2.949703    0.890639
C       1.368997    2.097281   -0.121937
H      -0.532687    1.649783   -1.104272
H      -0.287633    4.006109    1.675934
H       0.238964    2.628939    2.663231
H       2.314963    3.533113    1.177430
H       2.137844    1.823157   -0.830658
