17

C       0.451725    1.440121   -0.293527
C       0.033244    0.035665    0.092689
O       0.627717   -0.968733   -0.781292
C       1.313793   -1.603654    0.306948
C       2.774069   -1.532490    0.168969
N       3.924841   -1.471941    0.078425
C       0.663928   -0.639389    1.346744
C       1.556810    0.157932    2.283456
H       1.538677    1.554112   -0.289971
H       0.090724    1.664216   -1.301868
H       0.017320    2.174212    0.393544
H      -1.059811   -0.050180    0.062745
H       1.030288   -2.657907    0.410175
H      -0.092124   -1.175796    1.924736
H       2.365641    0.665635    1.752760
H       0.971541    0.911593    2.819787
H       2.014513   -0.499277    3.029460
