15

O       0.404566    1.132607    0.598586
C      -0.066989   -0.057494    0.035954
C      -1.562319   -0.103103   -0.297511
C      -1.656058   -1.291691   -1.284804
C      -0.382706   -1.184229   -2.155004
C       0.582687   -0.353945   -1.315912
O       1.650263    0.103811   -1.643522
H       1.244108    1.316969    0.150112
H       0.165917   -0.923802    0.687471
H      -2.196441   -0.225645    0.582723
H      -1.842078    0.836862   -0.787683
H      -1.654846   -2.235431   -0.728932
H      -2.572998   -1.270088   -1.876957
H       0.059036   -2.145018   -2.434537
H      -0.561501   -0.639022   -3.088788
