17

C      -0.470545    1.314771   -0.178468
C      -0.013074   -0.122615    0.014346
C       1.218893   -0.644187   -0.844191
O       1.865049    0.246376   -1.706027
C       1.950871   -0.972463    0.469073
O       2.055266    0.250450    1.187737
C       0.799444   -0.455181    1.267850
C       0.367027   -0.925900    2.597610
O      -0.778439   -1.188621    2.870490
H       0.338036    2.021101    0.029879
H      -0.803145    1.475981   -1.207795
H      -1.302750    1.549098    0.492038
H      -0.850757   -0.818820   -0.079798
H       0.965794   -1.532721   -1.426268
H       2.215278    0.960908   -1.159918
H       2.671656   -1.749067    0.702416
H       1.198329   -1.032770    3.327519
