21

C       0.033705    1.594691   -0.052579
C      -0.003584    0.065315   -0.016407
C      -1.431056   -0.499441   -0.002762
O      -2.190735   -0.056640   -1.126281
C      -1.444556   -2.028848    0.080395
C      -2.806212   -2.794808    0.135108
C      -2.308134   -3.783238   -0.964266
C      -1.179202   -2.784129   -1.235868
O      -0.497508   -2.535544   -2.192942
H       1.062448    1.962898   -0.106121
H      -0.513919    1.975046   -0.918739
H      -0.429375    2.021575    0.844168
H       0.522765   -0.352129   -0.884481
H       0.526645   -0.302958    0.871224
H      -1.969033   -0.098392    0.866675
H      -1.700336   -0.313152   -1.917466
H      -0.762982   -2.379824    0.864509
H      -3.077647   -3.232535    1.095911
H      -3.618796   -2.162796   -0.227482
H      -1.920720   -4.719748   -0.549333
H      -2.964830   -4.015444   -1.805762
