25

C       0.731620    0.790095   -0.929888
C      -0.048501    0.589355    0.378435
C      -1.394945   -0.094630    0.118328
O      -2.177250    0.773320   -0.693055
C       0.765150   -0.144041    1.447351
C       1.159627   -1.577711    1.121401
C       1.774679    0.668836    2.230148
C       0.531370    0.155186    2.919711
C      -0.520516    1.103258    3.455961
H       0.984273   -0.166692   -1.399774
H       0.129675    1.359938   -1.641177
H       1.665292    1.331313   -0.748755
H      -0.294199    1.585771    0.762848
H      -1.237344   -1.062083   -0.383921
H      -1.897742   -0.297787    1.076716
H      -2.988385    0.314724   -0.929066
H       1.740681   -1.640619    0.195130
H       1.776756   -1.998031    1.921689
H       0.285112   -2.228752    1.010110
H       2.734866    0.221991    2.468190
H       1.823758    1.735266    2.028758
H       0.692554   -0.704118    3.567669
H      -0.640073    1.991178    2.829535
H      -1.500162    0.618194    3.536110
H      -0.243169    1.450284    4.457889
