18

C      -0.031607    1.539384   -0.107629
C       0.085661    0.033908   -0.043986
C       1.373417   -0.745928   -0.179624
C       2.503357   -0.066850    0.587404
O       1.686737    0.044576    1.789247
C       0.630066   -0.692498    1.152036
C      -0.082506   -1.765531    1.901186
N       0.358377   -1.911737    3.178031
O      -0.965545   -2.431311    1.390096
H       0.733092    2.024500    0.503653
H       0.066155    1.898506   -1.137295
H      -1.007711    1.860962    0.268921
H      -0.745456   -0.522018   -0.470892
H       1.485297   -1.588151   -0.848624
H       3.360568   -0.723369    0.769474
H       2.852339    0.910323    0.236615
H       1.122187   -1.350132    3.514744
H      -0.054295   -2.620381    3.760349
