13

N       0.039364    1.333940    0.310001
C      -0.047185   -0.023493    0.057027
C      -1.124707   -0.833079   -0.120764
O      -0.637275   -2.132035   -0.272050
C       0.687533   -1.985972   -0.161674
O       1.458805   -3.077455   -0.316482
C       1.018672   -4.280654    0.197846
O       1.616119   -5.284588   -0.007120
N       1.118309   -0.787221    0.031379
H       0.943742    1.711466    0.063441
H      -0.715204    1.886280   -0.070287
H      -2.191137   -0.713571   -0.159479
H       0.098383   -4.173589    0.789904
