23

C       0.035356    0.991493    0.967252
C      -0.697964   -0.247205    1.506872
C      -1.295489    0.010157    2.898669
C      -1.748033   -0.748058    0.515905
C      -2.882321    0.201135    0.175400
O      -1.205789   -1.426657   -0.635972
C      -1.991792   -2.190177    0.298652
C      -1.275488   -3.348981    0.949234
O      -1.002356   -4.358918   -0.009667
H       0.878686    1.245980    1.617009
H       0.424517    0.805637   -0.038075
H      -0.619733    1.867840    0.924820
H       0.049441   -1.040473    1.600232
H      -0.506060    0.271496    3.610271
H      -2.009028    0.840635    2.882926
H      -1.815988   -0.872683    3.284436
H      -2.500451    1.142934   -0.229173
H      -3.533319   -0.247758   -0.578135
H      -3.485118    0.432698    1.059036
H      -2.972642   -2.467702   -0.094653
H      -0.356205   -3.020079    1.450536
H      -1.923392   -3.808870    1.703686
H      -0.511234   -3.931770   -0.721143
