19

C      -0.088548    1.522732   -0.014426
C       0.049829    0.000924    0.006395
C       0.969194   -0.548521   -1.109517
C       1.183958   -2.028923   -0.737746
C       1.961558   -1.309647    0.382567
O       2.303681   -0.261745   -0.576199
C       0.851105   -0.624132    1.225618
C       1.419919    0.382120    2.195166
O       1.008459    0.552123    3.316215
H       0.889337    2.005742   -0.094298
H      -0.690400    1.837744   -0.873327
H      -0.580716    1.893910    0.889652
H      -0.943509   -0.455610   -0.047145
H       0.813668   -0.195538   -2.129233
H       0.320490   -2.647366   -0.480630
H       1.853688   -2.535620   -1.432900
H       2.820301   -1.740916    0.897389
H       0.241333   -1.331312    1.792870
H       2.278330    0.968910    1.802087
