15

C       0.083811    1.506896   -0.010606
C      -0.063491    0.028589   -0.058342
C      -1.130060   -0.817540    0.020990
C      -2.584800   -0.521666    0.191697
C      -0.513602   -2.102412   -0.101310
N       0.795976   -2.029219   -0.240359
O       1.075980   -0.684311   -0.212825
C      -1.172283   -3.365555   -0.084231
N      -1.761729   -4.360316   -0.063094
H       0.727303    1.808360    0.822096
H       0.536710    1.884013   -0.933112
H      -0.890693    1.981444    0.115668
H      -3.170717   -0.908696   -0.648389
H      -2.980745   -0.984424    1.101594
H      -2.764085    0.553927    0.257706
