17

O      -0.572676    1.530833    0.007522
C      -0.616892    0.241180    0.533539
C      -1.171001   -0.757887   -0.460894
O      -1.486451   -0.408771   -1.576621
C      -1.363590   -2.193389    0.024554
C      -2.810306   -2.340243    0.492506
O      -3.166432   -1.997029    1.597775
C      -3.809764   -2.884803   -0.506788
O      -5.107233   -2.886809    0.001559
H      -0.892120    1.452974   -0.904592
H       0.385580   -0.108753    0.836778
H      -1.244593    0.187077    1.439435
H      -1.154449   -2.869362   -0.807779
H      -0.705102   -2.408914    0.869207
H      -3.726867   -2.273880   -1.421935
H      -3.482004   -3.900912   -0.788657
H      -5.033608   -2.554347    0.909366
