18

C      -0.103825    1.548531   -0.045179
O       0.204414    0.150399   -0.078513
C       0.514142   -0.380301    1.131086
O       0.556164    0.255741    2.146715
N       0.751983   -1.760210    0.993718
C       0.347443   -2.429649   -0.248526
C       1.499949   -2.444446    1.982522
C       1.646058   -3.946924    1.784802
O       2.005490   -1.886851    2.922927
H       0.752788    2.122544    0.315691
H      -0.341638    1.820491   -1.073766
H      -0.956561    1.741604    0.610246
H       1.142437   -2.410553   -1.002326
H       0.080906   -3.464683   -0.042441
H      -0.524362   -1.927544   -0.660734
H       2.127028   -4.195929    0.834298
H       2.262377   -4.312090    2.605210
H       0.676984   -4.455464    1.812018
