14

N       0.318194    1.373208    0.242314
C       0.096619    0.006785    0.075260
C      -1.034125   -0.738763    0.234457
O      -0.762589   -2.070836    0.048340
C       0.551231   -2.183125   -0.241159
C       1.122848   -0.948650   -0.233722
O       2.423290   -0.594892   -0.514622
C       3.402271   -1.079275    0.306517
O       4.554724   -0.862788    0.107780
H       1.108253    1.703766   -0.296392
H      -0.494358    1.946194    0.061347
H      -2.054172   -0.495406    0.476123
H       0.929163   -3.170733   -0.444174
H       2.981902   -1.675997    1.135300
