21

C       0.399781    0.938761   -0.234070
C      -0.096673   -0.494713   -0.060151
C      -1.600581   -0.616413   -0.010173
O      -2.342536    0.346122   -0.019747
C      -2.236642   -2.013755    0.071482
O      -3.607738   -1.887145    0.336356
C      -2.067771   -2.811139   -1.236097
O      -0.727965   -3.224334   -1.383683
C      -0.519167   -4.005774   -2.539147
H       1.492751    0.967402   -0.238214
H       0.041399    1.366803   -1.174166
H       0.039022    1.580879    0.573287
H       0.263593   -1.164973   -0.849057
H       0.288110   -0.939073    0.869216
H      -1.738229   -2.581842    0.871605
H      -3.784508   -0.933189    0.270397
H      -2.743150   -3.677397   -1.173213
H      -2.394416   -2.199125   -2.093614
H      -1.131401   -4.920082   -2.522688
H      -0.758322   -3.447565   -3.457300
H       0.536631   -4.285560   -2.557999
