16

C       0.001377    1.434040    0.039608
N       0.002859   -0.008026   -0.075081
C       0.053131   -0.780439   -1.187601
C       0.024805   -2.076294   -0.711485
N       0.060706   -3.231510   -1.473715
C       0.027270   -4.357799   -0.863517
N      -0.002009   -5.537180   -1.543067
N      -0.041412   -2.017230    0.655585
N      -0.054065   -0.770649    1.033474
H       0.914099    1.858160   -0.388929
H      -0.866796    1.862900   -0.469288
H      -0.046038    1.671967    1.102350
H       0.102179   -0.378120   -2.184448
H      -0.018029   -4.455050    0.224473
H       0.192098   -5.502579   -2.532260
H       0.244546   -6.383636   -1.060270
