16

C       0.368125    1.351465   -0.067421
O       0.479543   -0.057121   -0.086607
C       0.341449   -0.632285    1.202318
C       0.513847   -2.108276    1.067543
N      -0.225996   -2.981464    1.687375
O       0.256411   -4.204797    1.343625
N       1.317973   -4.098139    0.460676
C       1.491517   -2.812625    0.289337
N       2.487285   -2.244655   -0.469724
H       1.143897    1.811161    0.563392
H       0.489521    1.700185   -1.094973
H      -0.616513    1.669762    0.304665
H       1.107376   -0.219998    1.881101
H      -0.642723   -0.410332    1.638149
H       2.918073   -2.875444   -1.130586
H       2.211717   -1.358176   -0.870484
