19

C       0.029873    1.576288    0.026781
C       0.013983    0.045750    0.021591
C      -1.403411   -0.532244   -0.025496
C      -1.419257   -2.073474    0.030239
O      -0.784534   -2.578074    1.203628
C      -2.780197   -2.595811   -0.109253
C      -3.916577   -3.006750   -0.187847
C      -5.191535   -3.472744   -0.280222
C      -6.323536   -3.885220   -0.361476
H       1.053754    1.961159    0.059173
H      -0.451021    1.984005   -0.869409
H      -0.502957    1.975702    0.896966
H       0.581927   -0.325702   -0.841797
H       0.523238   -0.340822    0.910416
H      -1.999327   -0.149466    0.814255
H      -1.918184   -0.212428   -0.939805
H      -0.808133   -2.458019   -0.797004
H      -1.367979   -2.396399    1.949361
H      -7.318140   -4.249482   -0.434347
