15

C       0.103281   -1.265933    0.376921
C       0.081817   -0.093606    0.115211
C       0.071680    1.330479   -0.231343
O      -0.780079    2.070408    0.654163
C      -0.040183    3.107141    1.313599
C       1.370398    2.972306    0.782276
C       1.430822    1.981501   -0.093100
C      -0.627599    4.423575    1.048714
C      -1.093491    5.512812    0.849182
H       0.115871   -2.301001    0.614926
H      -0.315713    1.435544   -1.257102
H      -0.074156    2.923700    2.399178
H       2.171128    3.627891    1.096201
H       2.295414    1.636328   -0.643417
H      -1.511853    6.472266    0.668643
