14

N      -0.026048   -1.140765    0.280194
C      -0.015643    0.010315    0.183076
C       0.003381    1.464689    0.042594
C       1.417579    2.021953   -0.150024
C       1.567518    3.558513   -0.127992
C       2.524185    3.296735    1.053409
O       2.226514    1.882195    1.031834
H      -0.614688    1.743370   -0.819709
H      -0.446467    1.916458    0.933366
H       1.889094    1.533305   -1.012606
H       2.004663    4.010015   -1.018890
H       0.653282    4.094719    0.136059
H       3.582827    3.490918    0.844188
H       2.260162    3.755548    2.012291
