19

N       0.002181   -1.147641   -0.457257
C       0.006579   -0.016566   -0.218137
C      -0.023125    1.416887    0.076025
C      -0.450454    2.323283   -1.118613
C       0.879585    3.083822   -0.912661
N       1.331064    2.072325    0.085139
C       1.564682    2.570675    1.443513
C       0.170091    2.846746    2.044101
C      -0.683126    1.707168    1.455255
H      -0.529761    1.790441   -2.066107
H      -1.365519    2.893353   -0.949656
H       1.540729    3.144540   -1.781603
H       0.756117    4.092107   -0.498653
H       2.084297    1.796959    2.021701
H       2.212740    3.451055    1.412045
H       0.165350    2.849211    3.136881
H      -0.203774    3.821853    1.713539
H      -1.741176    1.958242    1.349421
H      -0.617540    0.816408    2.086289
