14

C       0.079950    1.318976    0.015782
N      -0.020109   -0.119747    0.002305
N      -0.003730   -0.820093   -1.139260
C       0.097050   -2.086387   -0.743650
N       0.185230   -3.168055   -1.613922
C       0.155747   -2.092737    0.665678
O       0.231375   -3.190004    1.450940
N       0.092496   -0.849921    1.116891
H       1.124370    1.651789   -0.017422
H      -0.446772    1.707070   -0.856865
H      -0.385374    1.689904    0.929916
H      -0.184395   -2.952667   -2.530442
H      -0.239402   -4.006664   -1.240858
H       0.240268   -2.892508    2.368458
