14

O      -0.025114    0.025442   -0.026362
C      -0.069449    1.221849    0.002662
C      -1.245249    2.181750    0.061452
C      -0.790349    3.246734   -0.993116
C       0.340385    3.553400    0.046418
C      -0.725814    3.195468    1.136522
C       1.120397    2.251126   -0.008645
O       2.297588    2.034691   -0.048346
H      -2.243647    1.752136    0.081391
H      -0.503903    2.904666   -1.990853
H      -1.503684    4.070567   -1.064887
H       0.909389    4.479668    0.051500
H      -1.432296    4.013855    1.290865
H      -0.380008    2.806246    2.097493
