19

C       0.241730    1.463978   -0.203516
C      -0.259034    0.078362    0.244102
C       0.493275   -0.477409    1.362283
C       1.125437   -0.921008    2.289023
C       1.863683   -1.426786    3.390651
C       3.358428   -1.598573    3.456324
C       2.472386   -2.793312    3.711305
C       1.789316   -2.630272    5.060212
O       1.337912   -1.290867    4.725224
H       1.286182    1.415165   -0.523101
H      -0.358565    1.834152   -1.040035
H       0.173524    2.184028    0.616196
H      -1.318845    0.141541    0.522787
H      -0.214602   -0.620574   -0.601466
H       3.866472   -1.602096    2.497957
H       3.897580   -1.124855    4.272581
H       2.498035   -3.691131    3.109671
H       0.932938   -3.298857    5.202727
H       2.423609   -2.642775    5.954523
