14

O      -0.097610    1.416975    0.049772
C      -0.050200   -0.003605   -0.010950
C      -1.433301   -0.492307   -0.050544
C      -2.552548   -0.923371   -0.056013
C       0.688636   -0.457068   -1.200803
C       1.347417   -0.794103   -2.146863
C       0.678519   -0.573794    1.255190
C       0.070607   -0.122093    2.502480
N      -0.389999    0.222257    3.503834
H       0.765130    1.750809   -0.223475
H      -3.549372   -1.291433   -0.063598
H       1.906821   -1.096694   -2.998429
H       0.671829   -1.666924    1.216252
H       1.723450   -0.248199    1.222971
