20

C      -0.119825    1.514144    0.255185
C       0.103652    0.012181    0.035531
C       0.739511   -0.308370   -1.280582
O       1.406845   -1.560094   -1.449600
C       2.127842   -0.362975   -1.754278
C       1.688808    0.151276   -3.171007
C       0.279030    0.199795   -2.708597
N       0.694656   -0.783451   -3.722296
C       0.263022   -0.426661   -5.072130
H       0.826139    2.063842    0.219737
H      -0.781829    1.938829   -0.506254
H      -0.580173    1.696850    1.230267
H       0.743193   -0.398489    0.824393
H      -0.855196   -0.519319    0.103200
H       3.076298   -0.197708   -1.256073
H       2.234589    0.841262   -3.801491
H      -0.488710    0.934618   -2.915460
H       0.236430    0.658825   -5.270575
H       0.942846   -0.889894   -5.793893
H      -0.740505   -0.829905   -5.239715
