15

C       0.312681    1.458631    0.075448
C       0.088253   -0.016038    0.062219
N      -0.073769   -0.694451   -1.041795
O      -0.254359   -1.998058   -0.665693
N      -0.202049   -2.131152    0.691351
C       0.006198   -0.932473    1.160448
C       0.111470   -0.671740    2.637847
C       1.381219   -0.057516    3.020125
C       2.424882    0.452218    3.326329
H       1.241492    1.701471    0.599374
H       0.364044    1.838970   -0.945857
H      -0.500837    1.973035    0.598373
H      -0.716278   -0.022302    2.952853
H      -0.022338   -1.624015    3.161320
H       3.349807    0.892241    3.607612
