20

C       0.089912    1.529234    0.016231
C      -0.076441    0.027754    0.016273
C      -0.895132   -0.648090    1.057810
N       0.583461   -0.732731    1.100188
C       1.242294   -1.889254    0.515963
C       0.583251   -3.037676   -0.217470
O      -0.781550   -3.326106   -0.109270
C       1.112083   -1.863974   -1.004812
C       0.153226   -0.710533   -1.316807
H       1.069319    1.816724   -0.383572
H      -0.679257    2.007635   -0.601569
H       0.007919    1.926414    1.031222
H      -1.314712   -0.048303    1.862852
H      -1.457601   -1.532028    0.795911
H       2.186101   -2.119335    0.999372
H       1.208392   -3.931880   -0.254367
H      -1.079408   -3.654335   -0.964791
H       1.957655   -2.019798   -1.666647
H      -0.788815   -1.056773   -1.756579
H       0.615916   -0.036565   -2.043199
