19

C       0.911445    0.645839   -0.433762
C       0.161425   -0.652980   -0.130222
C      -1.342882   -0.415217    0.099020
O      -1.881571    0.120856   -1.079786
C      -3.179701    0.667000   -0.945822
C      -2.022287   -1.726290    0.493986
O      -2.762606   -2.357669   -0.221811
C      -1.763208   -2.270088    1.908630
O      -1.123333   -1.691931    2.747747
H       1.968139    0.443023   -0.630967
H       0.484819    1.140784   -1.308699
H       0.855189    1.339111    0.412495
H       0.266021   -1.355426   -0.965234
H       0.578552   -1.132218    0.760417
H      -1.462552    0.283991    0.945395
H      -3.927183   -0.101462   -0.714839
H      -3.208387    1.442608   -0.165150
H      -3.429791    1.124097   -1.905679
H      -2.255511   -3.251341    2.079922
