17

C      -0.206746    1.567989   -0.044267
C       0.023154    0.064179   -0.010534
C      -1.153661   -0.831115    0.478686
O      -0.315723   -1.472345    1.457180
C       0.797680   -0.589574    1.157768
C       1.957738   -1.378992    0.524309
O       2.826184   -1.971408    1.117997
C       1.762275   -1.277815   -0.943395
C       0.719690   -0.486672   -1.229899
H       0.736273    2.108972   -0.173452
H      -0.865047    1.843307   -0.876233
H      -0.673356    1.914664    0.882706
H      -1.968055   -0.266893    0.951617
H      -1.572293   -1.541222   -0.243400
H       1.097815    0.014251    2.019325
H       2.405078   -1.786582   -1.650716
H       0.371170   -0.249907   -2.231219
