18

C      -0.001699    1.340045    0.295753
C       1.459747    1.534861   -0.179233
C       1.317878    0.198347   -0.897712
C       2.188564   -1.016881   -0.924369
C       1.508041   -1.956537   -1.598706
C       0.269673   -1.364908   -2.182357
C      -0.634123   -0.443285   -1.286600
C       0.426757    0.130845   -2.180439
N       0.035438   -0.134937   -0.034131
H      -0.203573    1.517189    1.354100
H      -0.727086    1.900748   -0.304773
H       1.690350    2.408708   -0.792361
H       2.174687    1.479271    0.645993
H       3.068671   -1.160613   -0.311100
H       1.759522   -3.007921   -1.666310
H      -0.256653   -1.845852   -2.998554
H      -1.714475   -0.493924   -1.376531
H       0.431264    0.776823   -3.052576
