23

C      -0.008727    1.524715   -0.165042
C       0.025971    0.016450    0.098287
O       0.698352   -0.269660    1.327521
C      -1.361815   -0.590062    0.060054
C      -1.917547   -1.226682   -1.204670
O      -1.102565   -1.354315   -2.336410
C      -1.594086   -2.095012   -0.018892
C      -0.404410   -3.035909   -0.092205
C      -2.766068   -2.641877    0.775919
H       0.999729    1.943282   -0.109702
H      -0.424815    1.744609   -1.154675
H      -0.633796    2.036565    0.577326
H       0.647597   -0.457516   -0.665740
H       0.140388    0.052052    2.044101
H      -2.089084   -0.037728    0.656819
H      -2.971118   -1.058143   -1.431491
H      -1.067452   -0.499464   -2.778375
H       0.324209   -2.716525   -0.837595
H       0.099147   -3.097091    0.877091
H      -0.738751   -4.041621   -0.370708
H      -3.125931   -3.584739    0.347713
H      -2.474760   -2.837890    1.814651
H      -3.606836   -1.940473    0.794040
