20

C       0.039776    1.448182   -0.062502
C       1.297389    0.677306   -0.002978
N      -0.050520   -0.005200    0.157115
C       0.163726   -0.624309   -1.196567
C       1.606835   -0.022555   -1.332141
C       2.005676    0.841459   -2.557869
C       3.080264    0.036361   -3.336328
C       3.487869   -1.032049   -2.352383
C       2.697358   -1.059441   -1.281450
H      -0.234236    2.027136    0.814394
H      -0.306431    1.864862   -1.006470
H       1.993570    0.765363    0.826745
H       0.152336   -1.713652   -1.120052
H      -0.572199   -0.309192   -1.945678
H       1.145554    1.098829   -3.181595
H       2.430874    1.784899   -2.199424
H       2.674492   -0.413267   -4.252858
H       3.922623    0.661618   -3.654672
H       4.314483   -1.710471   -2.533975
H       2.776512   -1.758850   -0.455367
