16

O      -0.074446    1.445439    0.072845
C       1.386319    1.487238   -0.008020
C       2.009926    1.323001    1.362062
C       1.303975    0.257149    2.195683
C       2.621963   -0.044416    1.511608
N       1.939793   -0.878903    0.478403
C       0.615253   -0.681657    1.200627
C      -0.013263    0.021473   -0.055806
C       1.430223    0.036884   -0.595454
H       1.730634    2.344103   -0.589577
H       2.435156    2.164142    1.895195
H       1.068378    0.399792    3.242048
H       3.611173   -0.267618    1.890731
H       0.143869   -1.579294    1.604243
H      -0.896621   -0.414852   -0.522061
H       1.760752   -0.137451   -1.618371
