13

C      -0.001374    1.454471    0.114314
C       1.510432    1.394831   -0.011009
C       1.927865    0.086495    0.695298
C       0.633298   -0.534704    1.188262
N      -0.048427   -0.050534   -0.078767
C       1.367635    0.068293   -0.695581
H      -0.462297    1.809694    1.043500
H      -0.476178    1.941109   -0.741688
H       2.229963    2.179436   -0.209672
H       2.950727   -0.079622    1.009873
H       0.662399   -1.627469    1.184986
H       0.172679   -0.180355    2.117935
H       1.685026   -0.342018   -1.643204
