16

O      -0.206327    1.321095   -0.082396
C       0.051940   -0.014626   -0.080622
C       0.645649   -0.697306   -1.093482
O       0.738181   -2.030588   -0.748110
C       0.198705   -2.165415    0.480764
C      -0.249267   -0.965491    0.954088
N       0.282221   -3.430863    1.046793
C      -0.873735   -3.946313    1.772108
C      -0.492564   -4.525246    0.453968
H      -0.587348    1.561117    0.766640
H       1.029232   -0.421864   -2.058618
H      -0.712171   -0.778753    1.910338
H      -0.644165   -4.473569    2.692659
H      -1.764962   -3.323982    1.801186
H      -1.122036   -4.288060   -0.399139
H       0.027153   -5.476141    0.399891
