15

O       0.075957    1.395374    0.001466
C       0.021887    0.031359    0.029972
C       0.033945   -0.824299    1.347520
N      -1.424482   -0.505092    1.561059
C      -1.320674   -0.808532    0.090588
C      -0.305538   -1.974439    0.351820
N       0.734557   -2.005928   -0.673485
C       0.912542   -0.677979   -0.984922
O       1.571496   -0.145240   -1.849014
H       0.663023    1.616863   -0.739001
H       0.772678   -0.813121    2.150298
H      -1.880676   -1.288795    2.041175
H      -2.177561   -0.769781   -0.584477
H      -0.647168   -2.936983    0.724922
H       0.841570   -2.738822   -1.357736
