14

C      -0.410198    1.711693   -0.062941
C       0.037257    0.251849   -0.002183
O       0.922118    0.115738    1.103872
C      -1.088533   -0.681890    0.079472
C      -1.975430   -1.491695    0.133039
C       0.832104   -0.114302   -1.286159
O       0.845362    0.522646   -2.302247
C       1.634271   -1.351453   -1.146373
N       2.244711   -2.327209   -1.036135
H       0.471232    2.356699   -0.075518
H      -0.996203    1.893951   -0.964200
H      -1.010280    1.939252    0.819281
H       0.968210   -0.814361    1.355947
H      -2.768710   -2.197406    0.185708
