21

C      -0.261576    1.517842    0.101577
C      -0.016527    0.028908   -0.003765
C       0.707766   -0.604371   -1.178745
C       1.367881    0.204968   -2.280957
O       2.321323    1.142942   -1.788545
C       3.161449    0.578482   -0.811397
C       4.250737    1.573386   -0.477052
O       2.441353    0.304999    0.374206
C       1.359244   -0.566540    0.185373
H       0.578972    2.087262   -0.296040
H      -1.161690    1.802350   -0.454260
H      -0.409263    1.810974    1.146474
H      -0.819881   -0.584734    0.397864
H       0.336478   -1.567608   -1.516035
H       1.867118   -0.488833   -2.976725
H       0.641622    0.789207   -2.854817
H       3.581379   -0.366672   -1.204022
H       3.800770    2.497225   -0.105440
H       4.906538    1.162878    0.293960
H       4.838151    1.797387   -1.370201
H       1.461602   -1.485609    0.757967
