23

C      -0.161224    1.590827   -0.009699
C      -0.000882    0.087423   -0.012455
C       0.686211   -0.668453   -1.135012
C       1.368420    0.057994   -2.292160
C       2.901325    0.101093   -2.136537
C       3.320311    0.488113   -0.738311
C       2.607776    0.182320    0.351408
C       3.038727    0.558052    1.743409
C       1.340416   -0.592989    0.226453
H       0.759344    2.100111   -0.305919
H      -0.957474    1.908422   -0.692992
H      -0.425760    1.947701    0.991847
H      -0.847974   -0.437403    0.423321
H       0.238383   -1.622829   -1.394498
H       1.104283   -0.428488   -3.236912
H       0.998609    1.086248   -2.367988
H       3.328894   -0.881391   -2.387705
H       3.327535    0.802045   -2.863574
H       4.259225    1.027035   -0.628146
H       3.988865    1.099721    1.740511
H       2.285735    1.187069    2.234864
H       3.156615   -0.332342    2.374913
H       1.302544   -1.485597    0.848260
