17

C       0.010894    1.440649    0.149486
C       0.019947   -0.068844    0.015053
O       1.025169   -0.745331    0.065152
N      -1.211239   -0.657842   -0.214416
C      -1.511212   -2.091186   -0.171690
C      -2.124878   -2.440876    1.141569
C      -2.977542   -1.750005    0.078822
C      -2.586825   -0.303100   -0.022795
N      -3.255714    0.763736   -0.007573
H       1.028638    1.775349    0.348488
H      -0.349470    1.909122   -0.772126
H      -0.645592    1.757693    0.966582
H      -1.065322   -2.774078   -0.879688
H      -2.365303   -3.489474    1.288472
H      -1.828282   -1.908992    2.040053
H      -3.872665   -2.189364   -0.334555
H      -2.677800    1.591431   -0.147358
