16

C       0.009006    1.453491    0.004595
C       0.027393   -0.037661   -0.031407
N       0.027506   -0.784514   -1.121920
C       0.048049   -2.077184   -0.678632
O       0.053755   -3.120714   -1.544742
C       0.061041   -2.156014    0.689212
C       0.084059   -3.308183    1.630820
N       0.047391   -0.818269    1.082820
H       0.895670    1.863303    0.502837
H      -0.011010    1.827289   -1.019854
H      -0.872380    1.840800    0.529412
H       0.040647   -2.732374   -2.427346
H       0.975738   -3.312130    2.271520
H      -0.793284   -3.331659    2.290583
H       0.088138   -4.236929    1.055703
H       0.051564   -0.491712    2.034493
