21

C       0.153682    1.810570    0.378206
C      -0.032205    0.350886   -0.061616
C       0.702526   -0.617544    0.887223
O       0.056565   -0.717664    2.150395
N      -1.465313    0.045138   -0.148019
C      -1.928131   -0.701377   -1.310395
C      -1.501848   -2.183645   -1.415256
C      -3.400367   -0.611396   -1.362854
N      -4.554306   -0.571234   -1.401670
H       1.213931    2.082700    0.428381
H      -0.349116    2.483326   -0.319917
H      -0.294888    1.979482    1.363895
H       0.411472    0.233028   -1.059298
H       0.692163   -1.631118    0.476479
H       1.754005   -0.313058    0.997504
H       0.203318    0.103097    2.631040
H      -1.770149   -0.389593    0.717686
H      -1.556466   -0.174580   -2.199484
H      -1.933860   -2.650653   -2.305364
H      -0.413519   -2.255677   -1.485320
H      -1.835840   -2.741773   -0.535952
