19

O      -0.026624    1.522328   -0.152365
C      -0.103982    0.168433   -0.484474
C      -1.255500   -0.510032    0.244150
O      -1.959006    0.164970    0.975492
C      -1.510277   -1.970069    0.033289
C      -0.516490   -2.785260   -0.770607
O       0.767538   -2.858195   -0.168071
C      -2.233834   -2.672744    1.181211
C      -2.988196   -2.346309   -0.059752
H      -0.775058    1.675049    0.447111
H      -0.260062    0.030621   -1.569234
H       0.823392   -0.368306   -0.238794
H      -0.935828   -3.789682   -0.935259
H      -0.349576   -2.343959   -1.758526
H       0.653837   -3.210905    0.721291
H      -1.966683   -3.708098    1.367468
H      -2.427329   -2.070053    2.060182
H      -3.690345   -1.522381   -0.018807
H      -3.245361   -3.146989   -0.744555
