13

N      -0.086981    1.353079   -0.205419
C      -0.052581    0.109384    0.011616
N       1.148045   -0.622429    0.242565
N       1.406440   -1.945225    0.413937
N       0.615436   -2.723418    1.005002
C      -0.625055   -2.335276    1.547359
N      -1.506467   -1.518887    1.124801
C      -1.300403   -0.731773   -0.011974
N      -2.101694   -0.628308   -0.988085
H       0.831213    1.796660   -0.134744
H       1.978616   -0.173039   -0.121489
H      -0.856948   -2.929152    2.431028
H      -2.908368   -1.239690   -0.832980
