21

C       0.155753    1.403989    0.102030
O      -0.125985    0.044881   -0.129144
C       0.603607   -0.528562   -1.199456
C       2.061831   -0.927505   -0.770124
C       1.919651   -2.367566   -0.287333
C       0.810456   -2.888367   -0.799174
C      -0.358656   -3.808901   -0.532277
C      -1.258965   -2.554408   -0.850615
C      -0.023656   -1.893786   -1.556985
H       1.201103    1.576770    0.398899
H      -0.051288    2.017456   -0.789429
H      -0.493532    1.734770    0.916710
H       0.611641    0.172521   -2.048017
H       2.756947   -0.828503   -1.615969
H       2.436191   -0.263414    0.016856
H       2.586251   -2.815509    0.440476
H      -0.482260   -4.590087   -1.290328
H      -0.433404   -4.264314    0.458104
H      -2.147079   -2.728568   -1.462377
H      -1.529692   -2.009078    0.053315
H      -0.052783   -2.050418   -2.641460
