17

C       0.110808    1.394224    0.061747
C       0.095630   -0.056935    0.004994
C       0.084017   -1.260743   -0.038981
C      -0.008667   -2.696811   -0.124288
O      -0.982449   -3.302798   -0.497236
O       1.145156   -3.274479    0.284018
C       1.175768   -4.690832    0.229758
C       1.961099   -5.328394   -0.876351
C       2.499198   -5.304750    0.542096
H       1.132700    1.783526    0.007420
H      -0.464980    1.826168   -0.763449
H      -0.333506    1.747020    0.998902
H       0.255725   -5.151547    0.566074
H       1.595552   -6.261174   -1.290256
H       2.429010   -4.662169   -1.591853
H       3.316722   -4.623908    0.749269
H       2.513531   -6.223208    1.117493
