21

C       0.086721    1.297122   -0.594043
C      -0.072006    0.190068    0.464106
C      -1.411714   -0.388686    0.492650
C      -2.529017   -0.839696    0.505019
C      -3.863803   -1.426392    0.508149
C      -3.892925   -2.839898   -0.133432
C      -5.227911   -3.425865   -0.130150
C      -6.342766   -3.880865   -0.111662
C      -7.684838   -4.445701   -0.097114
H       1.104333    1.699004   -0.577763
H      -0.114609    0.908278   -1.595965
H      -0.611155    2.117396   -0.405230
H       0.663358   -0.602995    0.275841
H       0.171873    0.594176    1.455241
H      -4.245647   -1.496920    1.533569
H      -4.564115   -0.779426   -0.033378
H      -3.511214   -2.769011   -1.158859
H      -3.192441   -3.486784    0.407940
H      -8.036959   -4.665136   -1.111264
H      -7.718847   -5.380182    0.474049
H      -8.402727   -3.754612    0.358643
