19

O       0.155527    1.407913    0.030490
C       0.060223   -0.006830   -0.020048
C      -1.395616   -0.491288   -0.048235
C      -1.505022   -1.985229   -0.111715
C      -0.997937   -2.861804   -1.296803
C      -1.921706   -3.937140   -0.732015
C      -1.874144   -3.716389    0.790058
O      -0.940831   -2.673675    1.056215
C      -2.797278   -2.896096   -0.037805
H      -0.184751    1.694047    0.884099
H       0.571800   -0.304876   -0.941058
H       0.591278   -0.481167    0.816834
H      -1.914090   -0.138291    0.852933
H      -1.906357   -0.050290   -0.911874
H      -1.360891   -2.486305   -2.257250
H       0.079502   -3.051351   -1.337586
H      -2.227352   -4.875086   -1.177300
H      -2.042073   -4.480354    1.537292
H      -3.861311   -2.705124   -0.025580
