17

C      -0.287455    1.572507   -0.042175
C      -0.014932    0.060336   -0.034590
C       0.780623   -0.471489   -1.197655
C       1.855231   -1.168902   -0.832408
C       2.005667   -1.268463    0.672096
C       3.305333   -0.867041    1.188945
C       4.380804   -0.523236    1.599619
C       0.832692   -0.366519    1.177947
O       0.636976   -0.053265    2.317906
H       0.643827    2.135911   -0.153703
H      -0.951858    1.843803   -0.867755
H      -0.757851    1.869683    0.898470
H      -0.981381   -0.460124    0.049810
H       0.486523   -0.289128   -2.225523
H       2.568403   -1.632022   -1.503002
H       1.787978   -2.290730    1.020765
H       5.328071   -0.220884    1.972212
