12

C       0.071740   -3.764584   -0.019124
C       0.044940   -2.556654   -0.012052
C       0.015590   -1.199489   -0.004114
C      -0.016618    0.013012    0.003059
C      -0.027594    1.417964    0.011015
C      -1.096528    2.274141    0.029929
O      -0.684936    3.541509    0.031523
N       0.710708    3.572505    0.013241
C       1.085734    2.322688    0.001336
H       0.094688   -4.826051   -0.025332
H      -2.162555    2.111300    0.043113
H       2.137959    2.078794   -0.013933
