25

C      -1.495582   -0.520102    2.285911
C      -1.109419   -1.767622    1.480480
C       0.048764   -1.561938    0.484174
C       1.358524   -1.284695    1.232178
O       2.354537   -0.931746    0.279852
C       0.279456   -2.727245   -0.490756
C      -0.586348   -3.966510   -0.582303
C      -0.554807   -2.983853   -1.727239
C      -1.763834   -2.147668   -2.085886
H      -0.699937   -0.193406    2.961838
H      -1.730489    0.319562    1.622056
H      -2.381277   -0.715353    2.898778
H      -0.856745   -2.590188    2.162825
H      -1.995832   -2.102489    0.933427
H      -0.164479   -0.655926   -0.101560
H       1.218802   -0.471198    1.957428
H       1.650424   -2.187023    1.795320
H       3.189446   -0.827404    0.744740
H       1.337986   -2.905474   -0.648436
H      -0.099085   -4.929130   -0.698989
H      -1.494205   -4.009102    0.010060
H       0.016923   -3.299865   -2.596818
H      -2.347226   -1.861759   -1.206186
H      -1.469613   -1.224344   -2.598294
H      -2.433911   -2.697720   -2.756227
