16

N       0.022672    1.228172   -0.139591
C       0.032278   -0.012981    0.024915
O       1.043376   -0.879264    0.371819
C       0.122367   -2.015735    0.401926
C      -1.047756   -1.089048   -0.020646
C      -2.269684   -0.891990    0.914680
N      -3.356727   -1.432741    0.088967
C      -2.853029   -1.530434   -1.191737
N      -1.591816   -1.386815   -1.350040
H       0.949847    1.635399   -0.006757
H       0.395920   -2.767265   -0.340015
H       0.066416   -2.445381    1.406006
H      -2.177148   -1.430963    1.861896
H      -2.412240    0.174238    1.126454
H      -4.293145   -1.080195    0.220716
H      -3.527536   -1.771646   -2.008368
