18

C      -0.057844    1.394247    0.112270
N      -0.014011   -0.045248    0.060728
C      -1.182146   -0.898748    0.016234
C      -0.583290   -2.297098   -0.026578
N      -1.277227   -3.359931   -0.073220
N       0.788888   -2.120565   -0.003392
C       1.768280   -3.180729   -0.029847
C       1.152306   -0.760225    0.049534
O       2.287844   -0.338366    0.078492
H       0.971116    1.756281    0.138066
H      -0.562094    1.810111   -0.769138
H      -0.584043    1.745751    1.008741
H      -1.821554   -0.778579    0.899812
H      -1.800341   -0.715308   -0.871553
H      -0.690300   -4.194334   -0.095934
H       1.677351   -3.778482   -0.943844
H       2.752562   -2.711605   -0.001183
H       1.656080   -3.842557    0.836382
