22

C      -0.308316    1.376809   -0.075317
N       0.093690   -0.012169   -0.014558
C       0.872496   -0.467851   -1.163935
C       1.284523   -1.887541   -0.772272
C       1.361001   -1.822256    0.750746
O       1.832461   -2.653362    1.482338
C       0.747801   -0.485634    1.216981
C       1.914543    0.401649    1.718956
C      -0.261410   -0.726406    2.343661
H       0.536907    2.086884   -0.127379
H      -0.926075    1.534721   -0.966384
H      -0.915325    1.634807    0.797451
H       0.258209   -0.427794   -2.069454
H       1.766972    0.157111   -1.352019
H       0.508933   -2.615128   -1.037468
H       2.227068   -2.233452   -1.201251
H       2.643538    0.606929    0.928044
H       1.540094    1.359592    2.091979
H       2.436649   -0.105494    2.534581
H       0.217720   -1.286283    3.151359
H      -0.632707    0.218329    2.753741
H      -1.115127   -1.300309    1.974028
