16

C      -0.923180    1.018222   -0.485866
C      -0.212367   -0.267510   -0.227600
C       0.411800   -1.225931   -0.998320
N       0.595823   -1.366034   -2.383948
C      -0.109635   -0.847207   -3.424316
O      -1.029106   -0.057172   -3.361281
N       0.983816   -2.207980   -0.223722
C       0.712611   -1.873044    1.015236
N      -0.004702   -0.722361    1.067321
H      -0.296449    1.884100   -0.235869
H      -1.198607    1.078425   -1.537716
H      -1.836978    1.089941    0.116568
H       1.272885   -2.081933   -2.606637
H       0.273942   -1.238414   -4.386427
H       1.004489   -2.421849    1.897506
H      -0.341699   -0.263087    1.897152
