20

O      -0.147220   -0.129067    0.191710
C      -0.040280    1.080557    0.100271
C      -1.264508    1.994681    0.215847
C      -1.688718    2.874349   -0.937320
C      -1.118965    3.088082   -2.124692
C       0.166451    2.493749   -2.648023
C       1.432776    3.122712   -2.028316
C       1.451300    3.022503   -0.493187
N       1.192273    1.678324   -0.002266
H      -2.089424    1.321634    0.470385
H      -1.121118    2.637342    1.097924
H      -2.616201    3.405799   -0.728155
H      -1.619599    3.790671   -2.787647
H       0.185675    1.413905   -2.468595
H       0.208588    2.619226   -3.734301
H       2.315866    2.619379   -2.441791
H       1.511145    4.180357   -2.308583
H       2.421483    3.350499   -0.105998
H       0.701712    3.695047   -0.070302
H       1.933416    0.998662   -0.112827
