19

O       0.376338    0.961021   -0.810281
C       0.048925   -0.126454    0.033356
C       0.523157    0.117118    1.485190
C      -0.224110   -0.733365    2.539333
C      -1.693840   -0.961468    2.114679
C      -1.708296   -1.783272    0.788909
C      -1.469898   -0.449815    0.017946
C      -2.137306    0.221691    1.230759
O      -2.821157    1.192028    1.390608
H      -0.065973    1.747354   -0.469629
H       0.573068   -0.982716   -0.406439
H       1.606183   -0.012584    1.559483
H       0.325010    1.175394    1.700639
H       0.254819   -1.709828    2.674446
H      -0.183511   -0.223992    3.506830
H      -2.333934   -1.267206    2.943423
H      -0.931506   -2.545946    0.687498
H      -2.684949   -2.220199    0.572320
H      -1.889243   -0.304146   -0.978221
