15

O      -0.203170    0.965170   -1.611085
C      -0.056602    1.614871   -0.599333
C       1.239470    2.018552   -0.095992
C       2.292134    2.362312    0.376823
C      -1.272815    2.152444    0.201348
O      -1.617949    3.402030   -0.356540
C      -2.487148    3.100883   -1.452230
C      -3.138849    1.757934   -1.053703
O      -2.379571    1.316456    0.077042
H       3.232002    2.660579    0.774704
H      -1.023595    2.293141    1.257903
H      -3.199431    3.923614   -1.542271
H      -1.919207    3.007470   -2.384611
H      -4.179948    1.871137   -0.736088
H      -3.079532    1.021441   -1.859221
