14

C      -0.046905    1.415771    0.221320
C      -0.568174    0.104237   -0.301070
O      -1.082695   -0.086321   -1.366289
O      -0.362242   -0.867534    0.647037
C      -0.736887   -2.160785    0.446092
N      -0.478004   -2.980719    1.437597
O      -0.942032   -4.214439    1.005617
C      -1.459156   -4.085544   -0.224051
C      -1.368700   -2.803754   -0.658014
H       1.018464    1.327927    0.451896
H      -0.207329    2.191016   -0.526300
H      -0.559279    1.676280    1.151647
H      -1.854109   -4.987582   -0.665460
H      -1.685837   -2.372782   -1.587196
