18

O       0.519733    0.224341   -0.909085
C      -0.249253   -0.335693    0.148876
C      -1.628351    0.304026    0.080100
N      -2.254204    0.049842   -1.201461
C      -3.461649   -0.554122   -1.327388
O      -4.181493   -0.894676   -0.403746
C      -3.894854   -0.765896   -2.759799
C      -4.065107    0.377635   -3.672151
O      -2.940643   -0.493905   -3.791060
H       1.336453   -0.275314   -0.993723
H      -0.343306   -1.425924    0.039359
H       0.202942   -0.126537    1.130384
H      -2.285090   -0.103126    0.852085
H      -1.527373    1.384377    0.246036
H      -1.698133    0.170800   -2.035873
H      -4.511516   -1.650013   -2.903318
H      -4.793292    0.312993   -4.478324
H      -3.842859    1.380514   -3.312887
