15

O       0.163652    1.423115   -0.049436
C       0.025625    0.042021   -0.024541
C       0.126183   -0.694305    1.331462
O      -0.844868    0.047857    2.112558
C      -2.020895   -0.312089    1.351481
C      -1.372370   -0.620574   -0.059830
C      -0.750828   -1.860841    0.749041
C      -2.039759   -1.840798    1.554788
O      -2.822693   -2.654083    1.943092
H      -0.225639    1.744537    0.775216
H       0.679491   -0.390992   -0.785032
H       1.044696   -0.838500    1.895801
H      -2.852469    0.362183    1.534282
H      -2.016449   -0.716857   -0.929465
H      -0.287729   -2.737627    0.308357
