12

N       0.123593    1.355113   -0.122604
C      -0.028554   -0.000424   -0.054499
C      -1.097689   -0.852978   -0.032480
N      -0.619547   -2.183050   -0.073800
C       0.651977   -2.038034   -0.103745
O       1.616660   -2.949880   -0.131979
O       1.108934   -0.753244   -0.098788
C      -2.456836   -0.486892    0.029079
N      -3.558501   -0.127830    0.085768
H       0.938693    1.721510    0.349796
H      -0.719626    1.873359    0.080482
H       1.187815   -3.815758   -0.122760
