19

C      -0.009451    1.571337   -0.035538
C      -0.041957    0.041558   -0.115392
C       0.719526   -0.503558   -1.319164
C       2.295222   -0.603074   -1.127952
O       2.968272    0.176325   -0.190033
C       1.985340   -2.031228   -0.702430
O       2.311329   -2.602919    0.309361
C       0.666334   -2.087455   -1.456566
O      -0.357908   -2.827163   -0.874585
H       1.018326    1.932804    0.049254
H      -0.455976    2.020566   -0.929599
H      -0.572884    1.929199    0.831671
H       0.372577   -0.381261    0.809170
H      -1.075348   -0.317765   -0.172635
H       0.432791    0.012251   -2.237868
H       2.793692   -0.527808   -2.099782
H       3.054504   -0.360466    0.609566
H       0.773069   -2.372181   -2.508141
H      -0.054612   -3.089037    0.004880
