20

C       0.119871   -1.171953    1.254170
C      -0.106821   -0.102233    0.182106
C       0.558807   -0.419264   -1.125468
C       0.803831   -1.681768   -1.832399
C       0.195889   -1.564267   -3.242186
C       0.451322   -0.085442   -3.497577
C       0.790773    0.508211   -2.331086
C       2.286987    0.486237   -2.013556
N       1.987182   -0.824994   -1.275722
H      -0.343730   -2.122726    0.971552
H       1.189444   -1.350601    1.397539
H      -0.310301   -0.861818    2.210544
H      -1.180981    0.036858    0.002871
H       0.266151    0.867588    0.537615
H       0.820958   -2.638485   -1.317782
H       0.712830   -2.144064   -4.015625
H      -0.841660   -1.928730   -3.214788
H       0.913031    0.216977   -4.434237
H       2.980841    0.428785   -2.856943
H       2.663747    1.176806   -1.252782
