18

C       0.033469   -1.201633    0.124680
C      -0.031131   -0.006348    0.014304
C      -0.063660    1.446436   -0.110193
C       1.332211    2.075360    0.006522
C       1.513860    3.579738    0.096134
C       1.475116    3.993176    1.534319
C       1.263623    2.765742    2.400336
C       2.124276    2.062406    1.334047
N       2.748248    3.447968    0.945135
H       0.074910   -2.258427    0.218139
H      -0.496409    1.723343   -1.080645
H      -0.733434    1.867606    0.648601
H       1.978633    1.684769   -0.785502
H       1.466560    4.305778   -0.708380
H       1.396903    5.035940    1.821330
H       1.815683    2.860360    3.338804
H       0.253082    2.399283    2.607236
H       2.776531    1.230179    1.587552
