16

N       0.008429    1.367235    0.160739
C      -0.064736    0.000156    0.004797
N      -1.179559   -0.608423   -0.008616
C      -1.192321   -2.064501   -0.048511
C       0.132739   -2.691111    0.360638
O       1.202402   -2.069026   -0.352605
C       1.306566   -0.709116   -0.015275
C       2.215820   -0.063311   -0.972550
N       2.911225    0.507090   -1.697543
H       0.765403    1.841772   -0.310807
H      -0.886713    1.828205    0.071623
H      -1.992791   -2.424722    0.609339
H      -1.457067   -2.383912   -1.065347
H       0.297046   -2.584147    1.444723
H       0.181270   -3.752211    0.105734
H       1.750487   -0.585238    0.989383
