14

O      -0.095657    1.382785   -0.050196
C       0.031272    0.026178   -0.023217
C      -0.033870   -0.999092    1.085023
C      -1.104766   -0.986893    0.010734
C      -0.225712   -1.983453   -0.795604
C      -0.536254   -3.091952   -1.617997
C      -0.831289   -4.016840   -2.329352
C       0.902093   -0.995514   -0.824742
N       0.835661   -1.981296    0.301872
H       0.654216    1.774486    0.413644
H      -0.088216   -0.948465    2.164680
H      -2.170210   -0.821517    0.067822
H      -1.082900   -4.839044   -2.952419
H       1.755603   -0.928088   -1.489853
