20

C       0.106405    0.377776   -0.665854
C       0.606722    1.375900    0.317100
N       0.940947   -0.037377    0.456808
C       0.337877   -0.755269    1.566374
C      -1.172532   -0.974629    1.755847
C      -1.551963   -2.266449    1.011543
C      -0.288235   -2.803137    0.338615
C       0.466291   -2.302656    1.599383
C      -0.912421   -2.329780    2.374784
H      -0.953795    0.138951   -0.631840
H       0.563267    0.293833   -1.648304
H       1.433229    2.036522    0.068937
H      -0.123760    1.801278    1.004096
H       0.760353   -0.343608    2.489377
H      -1.931564   -0.262022    2.053968
H      -2.584630   -2.466848    0.754998
H      -0.304369   -3.895969    0.300127
H       0.020992   -2.404877   -0.632762
H       1.399929   -2.764068    1.912856
H      -1.231078   -2.750609    3.316365
