21

C       0.065252    1.326089   -0.150555
O       0.026505   -0.074799   -0.027575
C      -1.286056   -0.588498    0.003310
C      -1.209990   -2.104409    0.137234
C      -2.579944   -2.769407    0.173843
C      -3.420001   -2.788854   -1.146869
C      -3.637613   -4.294373   -0.924752
O      -4.376128   -5.104897   -1.402447
C      -2.608239   -4.331047    0.215905
H       1.116091    1.625328   -0.165303
H      -0.414860    1.669411   -1.081050
H      -0.434471    1.825643    0.694951
H      -1.848963   -0.157187    0.850480
H      -1.830495   -0.308076   -0.915865
H      -0.624260   -2.501981   -0.701627
H      -0.652645   -2.345576    1.050329
H      -3.175562   -2.357406    0.995082
H      -4.322796   -2.175466   -1.202617
H      -2.817378   -2.600393   -2.043619
H      -1.664672   -4.785229   -0.108939
H      -2.927538   -4.820606    1.139414
