14

O       0.089617    1.516727    0.016556
C       0.036101    0.121310    0.000780
C       0.696633   -0.463083   -1.260015
C      -0.101453   -0.194127   -2.524008
F      -0.179509    1.104934   -2.816075
F       0.462689   -0.814450   -3.573432
F      -1.358014   -0.661954   -2.410235
C       0.691675   -0.451297    1.245464
O       1.147289    0.263819    2.102525
H       0.506813    1.755113    0.860032
H      -1.011491   -0.231216    0.020080
H       1.694350   -0.035373   -1.388478
H       0.790369   -1.550650   -1.173480
H       0.717589   -1.557076    1.327771
