17

C      -0.233553    1.520727   -0.068686
C       0.126029    0.024458    0.014089
C       0.808728   -0.490199   -1.214387
C       2.064889   -0.977811   -1.279729
C       2.416709   -1.406904   -2.638181
O       3.444328   -1.881760   -3.057724
C       1.146952   -1.125146   -3.496641
O       1.029683   -1.353590   -4.667924
C       0.107622   -0.513471   -2.557108
H       0.662824    2.131763   -0.210031
H      -0.918604    1.726658   -0.896217
H      -0.721657    1.841874    0.855318
H       0.763180   -0.155715    0.885869
H      -0.797460   -0.551416    0.167846
H       2.748414   -1.061329   -0.443397
H      -0.809783   -1.115341   -2.541827
H      -0.183673    0.484568   -2.905069
