19

C       0.082669    1.495974   -0.027576
O       1.213552    0.627863   -0.105610
C      -0.088814    0.036618    0.000427
C      -0.403034   -0.711766    1.254936
C      -1.883647   -0.978748    1.717583
C      -1.166175   -2.042034    2.615337
C      -0.219459   -2.270965    1.387331
C      -0.279521   -1.126557    3.473234
C       0.219526   -0.260547    2.588897
H      -0.009101    2.063519    0.897373
H      -0.146755    2.049485   -0.937103
H      -0.427123   -0.442167   -0.920393
H      -2.403602   -0.158999    2.218947
H      -2.508798   -1.420256    0.934107
H      -1.705643   -2.856572    3.096634
H      -0.688479   -2.831246    0.570842
H       0.788980   -2.638977    1.587203
H      -0.109942   -1.208805    4.537345
H       0.923819    0.548445    2.712890
