15

O      -0.160956    0.089168    0.545265
C      -0.011682    1.162955    0.005224
C       1.220265    1.900352   -0.023796
C       2.242233    2.547705   -0.056161
C       3.449028    3.303862   -0.087209
C       3.896412    4.125773   -1.306145
C       2.682307    4.801932   -1.933212
O       2.308275    5.382618   -0.648591
C       3.467323    4.828521   -0.054709
H      -0.848838    1.665713   -0.521461
H       4.295123    2.865178    0.436627
H       4.867805    3.979400   -1.757277
H       2.947071    5.592517   -2.641812
H       1.896577    4.162059   -2.345749
H       3.985437    5.397512    0.708526
