19

O      -0.103458    1.334813    0.089154
C       0.007405   -0.045292    0.023813
C      -0.347756   -0.835832   -1.230179
C      -1.256948   -0.872973   -0.018963
C      -0.674400   -2.224702    0.434758
C       0.231506   -1.851102    1.621111
C       1.096067   -0.850491    0.817212
C       1.667930   -1.785307   -0.275114
C       0.294166   -2.182180   -0.844905
H       0.598949    1.720240   -0.445715
H      -0.503888   -0.398302   -2.209193
H      -2.248804   -0.463064    0.125599
H      -1.343705   -3.077251    0.532319
H      -0.333736   -1.378543    2.430735
H       0.812599   -2.685086    2.028656
H       1.798293   -0.231596    1.374976
H       2.279559   -1.262995   -1.018925
H       2.245310   -2.619135    0.137569
H       0.238967   -3.010517   -1.548863
