18

C      -0.005765    1.546550    0.038332
C      -0.026124    0.014341   -0.014977
C      -1.449336   -0.553516    0.039309
N       0.687406   -0.476659   -1.202818
C       1.835188   -1.269283   -1.221908
C       2.143487   -1.483151   -2.505957
O       1.224080   -0.849166   -3.311711
C       0.303062   -0.212942   -2.500273
O      -0.630300    0.430416   -2.910705
H       1.021070    1.923660    0.040317
H      -0.528460    1.959999   -0.826930
H      -0.502410    1.894868    0.948654
H       0.542690   -0.376193    0.835957
H      -2.023068   -0.213925   -0.825783
H      -1.433622   -1.647300    0.041729
H      -1.952034   -0.214247    0.949727
H       2.316422   -1.600395   -0.317443
H       2.931381   -2.027166   -2.995109
