18

C      -0.518676    1.488491    0.140945
C       0.147392    0.131278   -0.000176
O       1.180087    0.206976   -1.004427
C       2.197947   -0.662161   -0.724645
N       3.207671   -0.853276   -1.455408
C       1.924746   -1.343540    0.601017
C       0.856402   -0.447330    1.255856
C       1.499816    0.631214    2.106504
O       1.122622    0.936893    3.207901
H       0.202265    2.260689    0.422569
H      -0.981783    1.781200   -0.804661
H      -1.296040    1.445738    0.909526
H      -0.593566   -0.606449   -0.338201
H       3.150351   -0.289085   -2.305044
H       1.526377   -2.347065    0.419474
H       2.844132   -1.456853    1.178301
H       0.149114   -0.988272    1.887242
H       2.378329    1.134259    1.640714
