18

C       0.008702    1.421868   -0.340421
N       1.371260    1.452254    0.274588
C       1.310546    0.110517    0.650515
N       1.953387   -0.624522    1.455940
C       1.366462   -1.974915    1.520025
C      -0.189112   -2.010991    1.520882
C      -0.834486   -1.182763    0.416886
N      -0.319394   -1.206069   -0.960787
C       0.035111   -0.095568   -0.094790
H      -0.751660    1.970034    0.226326
H      -0.005733    1.734795   -1.387437
H       1.693862    2.183124    0.894505
H       1.751368   -2.592768    0.694715
H       1.719584   -2.457200    2.436264
H      -0.520022   -3.054788    1.461083
H      -0.551363   -1.619978    2.480319
H      -1.911155   -1.043115    0.477140
H       0.458369   -1.852250   -1.073933
