18

C       0.052122    1.452778    0.008745
C       0.022956   -0.003038    0.001399
C       0.015597   -1.206854   -0.004632
C      -0.030835   -2.663755   -0.011295
C      -1.468622   -3.188667   -0.000895
O      -1.404718   -4.605450   -0.008209
C      -2.675765   -5.201713    0.000457
C      -2.525760   -6.660221   -0.007861
N      -2.441766   -7.811486   -0.013691
H       1.081590    1.827423    0.001694
H      -0.456367    1.866690   -0.868972
H      -0.440929    1.857468    0.899472
H       0.478330   -3.064107   -0.896212
H       0.494130   -3.072654    0.860395
H      -1.999427   -2.829796    0.894296
H      -2.015384   -2.821331   -0.882961
H      -3.254718   -4.913986    0.893770
H      -3.270678   -4.905695   -0.879539
