19

C       0.005069    1.580933   -0.139635
C       1.523568    1.480235   -0.084516
C       2.041046    0.701791    1.062694
C       1.437367    0.536718    2.428640
N       0.226683    1.301285    2.802382
C       0.126481   -0.150152    2.564194
C      -0.577017   -0.594236    1.300243
C      -0.004755    0.032975    0.025583
N       1.507773   -0.042470   -0.110793
H      -0.482436    2.190301    0.618356
H      -0.339741    1.871697   -1.134683
H       2.204313    2.041586   -0.718575
H       3.125957    0.623971    1.076199
H       2.171699    0.369102    3.211998
H       0.241118    1.488154    3.801350
H      -0.018186   -0.790614    3.431151
H      -0.479136   -1.684759    1.222048
H      -1.650062   -0.373199    1.358912
H      -0.443972   -0.468736   -0.838949
