18

O      -0.165040    1.445842    0.098717
C       0.006775    0.037205    0.034115
C      -1.380540   -0.581984   -0.094449
C      -1.371015   -2.103920   -0.082248
O      -0.544341   -2.531687   -1.139269
C      -1.152147   -2.753141    1.314154
O      -2.550116   -3.082391    1.414928
C      -2.779379   -2.744235    0.033543
H       0.705549    1.853723    0.096083
H       0.621850   -0.257946   -0.826020
H       0.506536   -0.342428    0.941129
H      -2.009236   -0.223897    0.727948
H      -1.837861   -0.235499   -1.028171
H      -0.528767   -3.494674   -1.146709
H      -0.514255   -3.649783    1.279430
H      -0.817859   -2.108005    2.134197
H      -3.647652   -2.088749   -0.097589
H      -2.901827   -3.636327   -0.599746
