16

C       0.012166    1.702742   -0.115965
C       0.013955    0.172116   -0.005214
C       0.662982   -0.498521   -1.214611
O       2.044640   -0.150697   -1.203988
N       0.703249   -0.281142    1.197310
C       0.063987   -0.577758    2.355291
O      -1.136933   -0.519790    2.527907
H       1.031675    2.084073   -0.217465
H      -0.562840    2.023827   -0.990907
H      -0.444059    2.141871    0.774391
H      -1.016599   -0.183832    0.080484
H       0.531378   -1.587751   -1.143123
H       0.170619   -0.151412   -2.135016
H       2.487639   -0.629550   -1.909716
H       1.709061   -0.336651    1.150345
H       0.772476   -0.894071    3.147295
