25

C      -0.122104    1.339792   -0.286092
C       0.249284   -0.102120   -0.013850
C       1.690177   -0.548287    0.094449
C       0.790504   -0.603847    1.310868
C       1.064031    0.374473    2.440871
C       0.300791   -1.947651    1.818197
C      -0.027418   -3.129560    0.859515
C       0.561511   -4.099403    1.919390
C       1.292290   -2.892490    2.563791
H       0.575639    2.041319    0.179246
H      -0.115830    1.542705   -1.363060
H      -1.125676    1.573142    0.087863
H      -0.401330   -0.812120   -0.519940
H       1.990750   -1.469305   -0.394179
H       2.455858    0.222089    0.080103
H       1.469802    1.323467    2.081944
H       0.150204    0.593912    3.006635
H       1.792534   -0.045220    3.144230
H      -0.570856   -1.772407    2.463189
H      -1.070659   -3.266222    0.563740
H       0.587448   -3.111954   -0.045441
H      -0.215327   -4.500896    2.576558
H       1.172339   -4.930550    1.559282
H       2.307606   -2.779866    2.169665
H       1.332365   -2.839953    3.654615
