17

C      -0.129875    1.450401   -0.540208
C       0.022617    0.001177   -0.135411
C       1.051155   -0.843342   -0.758407
O       1.223968   -0.321381    0.564432
C      -1.220335   -0.707962    0.441924
C      -1.679254   -0.036412    1.748679
O      -1.542817   -0.535759    2.830214
C      -2.328869   -0.723715   -0.505017
C      -3.263820   -0.702579   -1.260529
H       0.801075    1.815512   -0.979458
H      -0.936056    1.564731   -1.270082
H      -0.360129    2.079600    0.325527
H       0.905668   -1.920618   -0.821658
H       1.705166   -0.416369   -1.517076
H      -0.925566   -1.726450    0.713731
H      -2.162410    0.954742    1.613841
H      -4.085090   -0.704254   -1.934324
