23

C       0.063096    1.612105    0.050072
C       1.601673    1.385920    0.079115
C       1.295996   -0.012978    0.696930
C      -0.134109    0.071667    0.053966
C      -0.186459   -0.647989   -1.265713
C       0.008476   -0.204209   -2.511164
C       0.269399    1.211760   -2.982270
C       1.605422    1.887258   -2.527722
C       2.318955    1.302265   -1.296796
H      -0.268871    2.020211    1.009591
H      -0.380302    2.216334   -0.738716
H       2.146110    2.073307    0.731928
H       1.934597   -0.848064    0.396307
H       1.242923    0.023149    1.789213
H      -0.947444   -0.296097    0.688412
H      -0.358104   -1.719043   -1.152891
H      -0.030797   -0.953074   -3.299890
H       0.250845    1.213058   -4.076578
H      -0.572988    1.844530   -2.688200
H       2.319182    1.830757   -3.357694
H       1.417297    2.956537   -2.373026
H       3.283242    1.816871   -1.212167
H       2.562447    0.256981   -1.511632
