18

C      -0.049898    1.536014   -0.045103
C       1.501002    1.513252   -0.052796
C       1.448504    0.076889    0.556348
C      -0.029632   -0.011225    0.062048
C       2.431270   -0.944163    0.101713
N       2.624838   -1.234387   -1.179966
N       3.581097   -2.190470   -1.121031
C       3.919798   -2.434965    0.159278
N       3.214490   -1.666364    0.964225
H      -0.443959    2.000141    0.863837
H      -0.554742    1.977929   -0.906946
H       1.899609    1.481760   -1.069958
H       2.034330    2.278510    0.516263
H       1.489661    0.117747    1.646908
H      -0.750645   -0.495328    0.725117
H      -0.075044   -0.484927   -0.921857
H       3.930730   -2.605026   -1.969139
H       4.664729   -3.161646    0.447297
