21

C      -0.011471    1.540876   -0.017859
C      -0.027964    0.005919   -0.017814
C      -1.479769   -0.503438    0.066820
C       0.671805   -0.528698   -1.289427
N       1.028617   -1.938249   -1.232211
C       1.927457   -2.213116   -0.114819
C       1.595211   -1.531878    1.215194
O       2.103044   -1.886587    2.263652
N       0.734620   -0.472180    1.143449
H       1.015089    1.917405   -0.044819
H      -0.549558    1.933671   -0.886441
H      -0.497410    1.938581    0.880240
H      -2.082547   -0.111992   -0.759347
H      -1.518147   -1.596875    0.036277
H      -1.946361   -0.185964    1.004907
H       0.024933   -0.351433   -2.154702
H       1.595261    0.042357   -1.450672
H       0.193252   -2.508125   -1.153577
H       1.980609   -3.287942    0.072140
H       2.944442   -1.894811   -0.384087
H       0.517359   -0.066621    2.044983
