17

O       0.599413    0.928741   -0.648917
C       0.146959   -0.176072    0.066415
C      -0.132143   -0.077232    1.592199
C      -1.336483   -1.032631    1.395216
C      -1.316038   -0.705650   -0.144534
C      -2.319341    0.368567   -0.475288
O      -2.093338    1.562395   -0.358964
C      -3.621872   -0.101855   -0.910215
C      -4.693769   -0.516852   -1.268302
H      -0.086943    1.606296   -0.564691
H       0.846777   -0.992214   -0.139814
H       0.661249   -0.386206    2.275789
H      -0.461158    0.930917    1.856624
H      -1.083581   -2.081204    1.565103
H      -2.257230   -0.803480    1.934907
H      -1.457552   -1.558407   -0.812623
H      -5.646053   -0.865796   -1.587456
