20

C       0.592042    1.534283   -0.151752
C       0.084292    0.107061    0.020050
C       0.669589   -0.947178   -0.971450
C       1.375261   -1.670373    0.208754
N       2.764536   -1.334833    0.412720
C       3.047672   -0.483913    1.451232
O       4.149786   -0.087074    1.758694
C       1.715289   -0.152311    2.138808
C       0.637210   -0.738323    1.226787
H       1.685614    1.584300   -0.167161
H       0.232693    1.948528   -1.100179
H       0.236104    2.190335    0.649996
H      -1.009430    0.120552    0.013648
H      -0.091474   -1.564132   -1.456169
H       1.342640   -0.555051   -1.738953
H       1.203953   -2.749476    0.280709
H       3.513282   -1.683886   -0.165182
H       1.718326   -0.616727    3.130488
H       1.642399    0.926469    2.293445
H      -0.161533   -1.232260    1.780730
