19

C      -0.560517    1.330038    0.590624
N      -0.932445   -0.066579    0.498031
C      -0.915213   -0.748038   -0.679098
O      -0.578012   -0.256882   -1.743953
C      -1.327332   -2.223333   -0.587904
C      -2.459751   -2.577654    0.388037
C      -2.940023   -4.016354    0.212490
O      -2.083766   -2.335756    1.754703
H       0.304059    1.471240    1.249837
H      -0.300726    1.669212   -0.412813
H      -1.388319    1.938799    0.972094
H      -1.239956   -0.569255    1.319868
H      -1.605046   -2.515944   -1.603582
H      -0.436206   -2.813283   -0.327826
H      -3.300967   -1.894838    0.223345
H      -2.113010   -4.723496    0.354357
H      -3.719718   -4.247118    0.943305
H      -3.343847   -4.176262   -0.791632
H      -1.405501   -2.980698    1.988146
