17

N      -0.363521    1.146704    0.105369
C      -0.565397   -0.061628    0.403161
O      -0.527513   -0.995478   -0.580460
C      -0.747148   -2.347124   -0.207892
C      -2.232973   -2.694300   -0.098504
C      -2.610332   -4.183752    0.065690
O      -3.270265   -3.884089    1.334781
C      -2.906427   -2.557393    1.258075
N      -3.066350   -1.619348    2.074447
H      -0.424170    1.719645    0.944767
H      -0.787852   -0.470429    1.394053
H      -0.297257   -2.941836   -1.008549
H      -0.222943   -2.588386    0.726212
H      -2.777929   -2.188312   -0.898810
H      -3.314863   -4.594456   -0.660032
H      -1.774835   -4.873331    0.217943
H      -3.559022   -1.928940    2.913779
