19

C       0.113426    1.503958   -0.031629
C       0.021818   -0.014575    0.146232
C      -1.402171   -0.544687    0.016464
C      -2.101124   -0.513474   -1.395940
C      -2.262411   -2.030340   -1.308374
O      -0.958404   -2.611149   -1.132241
C      -1.580729   -2.075155    0.021426
C      -3.344391   -2.907040   -1.786027
O      -4.348431   -2.503634   -2.321384
H       1.147822    1.849087    0.057188
H      -0.256253    1.813004   -1.015194
H      -0.479706    2.030083    0.724665
H       0.649957   -0.519679   -0.595963
H       0.417577   -0.294127    1.131480
H      -2.056276   -0.088692    0.767117
H      -3.057425    0.010672   -1.396815
H      -1.491407   -0.172644   -2.235647
H      -1.735908   -2.748590    0.858350
H      -3.159674   -3.985944   -1.591224
