18

N      -0.256962    1.536682   -0.160878
C      -0.039268    0.096529   -0.015117
C      -1.367038   -0.657609    0.219273
C      -2.039812   -0.298801    1.525508
C      -3.023940    0.836180    1.615772
C      -3.509279   -0.587359    1.717753
C       0.680150   -0.494546   -1.167237
N       1.236100   -0.915355   -2.090029
H       0.632560    2.014926   -0.268859
H      -0.784921    1.718551   -1.010306
H       0.596406   -0.050516    0.867076
H      -2.040639   -0.453446   -0.622969
H      -1.154097   -1.732706    0.188398
H      -1.411764   -0.452272    2.400248
H      -3.020198    1.449163    2.509854
H      -3.243767    1.385713    0.707330
H      -4.057886   -0.999204    0.876571
H      -3.838413   -0.957348    2.682327
