18

C      -0.098577    1.515109    0.010283
C       0.081550    0.024996    0.034758
C       1.034614   -0.768599   -0.902181
C       0.703057   -1.902506    0.127125
C       0.704039   -0.773794    1.213924
C      -0.816795   -2.036055   -0.110560
O      -1.181739   -0.647419   -0.164231
C       1.483097   -3.110164    0.246045
N       2.108923   -4.077809    0.342475
H       0.859061    2.020458    0.160975
H      -0.514473    1.832654   -0.950493
H      -0.787690    1.828371    0.800145
H       0.718137   -0.917014   -1.936424
H       2.075200   -0.448493   -0.843862
H       1.712602   -0.454216    1.477279
H       0.087313   -0.926904    2.101647
H      -1.056517   -2.538448   -1.053750
H      -1.332364   -2.542688    0.712233
