21

C      -0.054522    1.489188   -0.279460
C      -0.050073   -0.023100   -0.033757
C      -1.443384   -0.556113    0.281458
O       0.448930   -0.714229   -1.181002
C       1.766038   -1.157916   -0.942429
C       2.921770   -0.174246   -1.296793
C       3.170552    0.074051    0.222649
C       2.013734   -0.911363    0.568661
O       0.815352   -0.350038    1.055717
H       0.950933    1.851660   -0.502916
H      -0.704923    1.730122   -1.124930
H      -0.421711    2.012621    0.607718
H      -2.122785   -0.356553   -0.551379
H      -1.392493   -1.634123    0.448013
H      -1.838293   -0.075554    1.180422
H       1.866083   -2.173146   -1.334465
H       3.756851   -0.644825   -1.821298
H       2.592201    0.690468   -1.876040
H       4.150191   -0.251955    0.580323
H       2.993492    1.091303    0.577224
H       2.282718   -1.758907    1.204040
