18

C       0.095410    1.154295   -0.613462
O      -0.268105    0.406159    0.528115
C      -1.372970   -0.457807    0.314707
C      -1.104904   -1.731529   -0.500552
C      -1.744239   -2.867796    0.331143
O      -1.892409   -4.005726   -0.061465
C      -2.086117   -2.310980    1.634523
C      -1.824592   -0.981627    1.666326
N      -1.966273   -0.078200    2.668435
H       0.916070    1.812749   -0.319913
H       0.435457    0.509190   -1.435401
H      -0.743680    1.766983   -0.977941
H      -2.196207    0.125741   -0.132097
H      -1.509758   -1.716713   -1.514608
H      -0.026520   -1.911496   -0.566913
H      -2.474758   -2.910385    2.447375
H      -2.076800   -0.416237    3.611036
H      -1.417990    0.763434    2.569858
