12

O      -0.996368    1.406078    0.006319
C       0.111923    1.033531   -0.263372
C       1.349371    1.895608   -0.119701
N       2.462620    1.311945   -0.464386
C       3.647956    2.029643   -0.364580
O       4.747139    1.625681   -0.643573
N       3.471980    3.357381    0.118966
C       2.264226    3.853982    0.445941
N       1.164036    3.171331    0.348303
H       0.346348    0.020699   -0.645468
H       4.312505    3.913787    0.206301
H       2.238889    4.880320    0.806451
