15

O       0.075468    1.407227   -0.069293
C       0.001466    0.020472   -0.045634
C       0.201624   -0.764751   -1.365741
O      -0.998745   -1.529391   -1.115725
C      -1.352493   -0.715307    0.020516
C      -1.316936   -1.510462    1.321521
O       0.059626   -1.503538    1.769302
C       0.780222   -0.557216    1.134834
O       1.870794   -0.197861    1.483477
H       0.913221    1.647655    0.351921
H       0.102751   -0.109528   -2.239235
H       1.090313   -1.396665   -1.464639
H      -2.270881   -0.142933   -0.133536
H      -1.928525   -1.055589    2.107385
H      -1.619831   -2.547791    1.168131
