17

C       0.475624    0.449093    0.768641
N      -0.427792    0.511332   -0.370820
C      -1.544386   -0.314899   -0.398145
C      -2.770505   -0.138257   -1.022488
C      -3.523652   -1.317547   -0.810126
C      -2.760076   -2.192989   -0.059548
N      -1.544218   -1.548795    0.184340
C      -3.022306   -3.479436    0.435900
C      -3.227416   -4.587976    0.868424
H       1.218936    1.243082    0.671072
H      -0.028619    0.556357    1.741712
H       1.024524   -0.499842    0.769748
H      -0.665279    1.455778   -0.635583
H      -3.076498    0.742319   -1.565809
H      -4.525588   -1.515931   -1.156964
H      -0.780798   -1.966960    0.685517
H      -3.422103   -5.560894    1.244596
