17

C       0.000861    1.460762    0.147863
C      -0.032707   -0.016555   -0.228995
N      -1.380642   -0.551916   -0.080272
C      -1.648355   -1.872579   -0.008694
N      -2.824960   -2.440790   -0.099507
C      -2.496714   -3.759053    0.097554
N      -3.468786   -4.727472    0.148238
N      -1.222063   -4.023771    0.279843
O      -0.636713   -2.713682    0.211182
H       1.013332    1.856527    0.032241
H      -0.660366    2.050047   -0.497774
H      -0.314566    1.607432    1.184639
H       0.336492   -0.154823   -1.255868
H       0.625979   -0.593067    0.425344
H      -2.153247    0.009905   -0.402538
H      -4.294270   -4.500055   -0.384720
H      -3.132445   -5.667250    0.000403
