17

C      -0.059602    1.518260   -0.007716
C       1.433829    1.897356   -0.029798
N       2.194343    1.469033    1.162146
C       2.277690    0.662215   -0.092412
C       1.321674   -0.472629   -0.096957
C       0.040751    0.019585   -0.027462
N      -0.822380   -1.033122    0.070876
C      -0.092104   -2.207054    0.039544
C       1.247367   -1.890759   -0.056970
H      -0.551572    1.912534    0.889494
H      -0.582814    1.932373   -0.880183
H       1.728127    2.813982   -0.530047
H       3.025814    2.054489    1.233487
H       3.218818    0.637296   -0.631555
H      -1.824587   -0.981879    0.123685
H      -0.589171   -3.163265    0.077207
H       2.057638   -2.602948   -0.090492
