16

C      -0.028900    1.465882    0.094745
C       1.294443    0.756405    0.019255
C       2.058728    0.450371    1.329614
C       1.094346   -0.452925    2.053010
C       0.014534   -0.737189    1.279446
O      -0.839906   -1.551539    1.893100
N      -0.303057   -1.844044    3.167155
C       0.830026   -1.174824    3.240837
C      -0.015614   -0.049071   -0.022071
H      -0.348357    1.896415    1.038172
H      -0.340991    2.020948   -0.783730
H       1.874085    0.878213   -0.887901
H       3.012809   -0.046054    1.116085
H       2.295238    1.368921    1.878697
H       1.408843   -1.261187    4.150257
H      -0.387211   -0.533848   -0.915927
