13

O      -0.848266    1.491614    0.135688
C       0.247964    1.088137   -0.137439
C       1.467989    1.998026   -0.334631
O       2.482500    1.517141   -0.774192
C       1.304452    3.487520   -0.052495
C       2.204610    4.394880   -0.789407
O       0.867573    4.182403   -1.239897
C       0.726065    3.867017    1.206681
C       0.291890    4.157340    2.288845
H       0.490402    0.019603   -0.314714
H       2.400644    5.377100   -0.366149
H       2.987565    3.958703   -1.404496
H      -0.116418    4.414600    3.235455
