17

C       0.587000    0.591920   -0.520863
O      -0.154590   -0.344761    0.269891
C       0.499973   -0.834802    1.336323
C       0.847114   -2.101134    1.720330
O       0.705372   -3.301870    1.109922
C       0.208969   -3.293874   -0.219423
C       1.441135   -1.974653    3.021565
C       1.419538   -0.653728    3.322214
O       0.846733    0.059957    2.315252
H       1.499478    0.128350   -0.915502
H      -0.066612    0.883423   -1.344630
H       0.853183    1.475382    0.067484
H       0.879151   -2.742728   -0.891827
H       0.163905   -4.338783   -0.531821
H      -0.789218   -2.847159   -0.275050
H       1.828262   -2.781382    3.622956
H       1.760056   -0.080661    4.168099
