20

C       0.117011    1.589208   -0.016159
C       0.063353    0.043984    0.041042
C       0.891824   -0.477611    1.239142
C      -1.403994   -0.459919    0.117082
C      -2.219423   -0.024076    1.338180
N      -3.496944   -0.505662    1.334457
O      -1.806672    0.679732    2.241867
C       0.631651   -0.497415   -1.201131
C       1.089812   -0.944147   -2.219461
H       1.151947    1.924924   -0.124587
H      -0.448640    1.965463   -0.874285
H      -0.302799    2.008066    0.899144
H       0.482124   -0.085657    2.170797
H       0.877268   -1.571452    1.273908
H       1.933515   -0.159922    1.141644
H      -1.940104   -0.131808   -0.781867
H      -1.406102   -1.556286    0.083147
H      -3.855786   -1.087252    0.598160
H      -4.099753   -0.264320    2.103605
H       1.505013   -1.333027   -3.116022
