18

O      -0.114171    1.381578    0.107124
C       0.040433    0.004165    0.074527
C       0.880326   -0.805816   -0.977936
N       0.804274   -1.939391    0.032682
C       0.846549   -0.843593    1.086834
C      -0.664793   -2.206584   -0.090148
C      -1.475032   -2.480744    1.184039
O      -1.918378   -1.102678    1.251235
C      -1.274395   -0.786994   -0.006859
H       0.749711    1.788413    0.229956
H       0.452337   -1.028025   -1.960117
H       1.908571   -0.450450   -1.080705
H       1.880370   -0.510031    1.207667
H       0.406477   -1.073445    2.056350
H      -0.850821   -2.847024   -0.951590
H      -2.320003   -3.163183    1.033640
H      -0.914184   -2.793777    2.072033
H      -1.976510   -0.396903   -0.748091
