17

C      -0.433234    1.273071    0.080443
C       0.083221   -0.150853   -0.138233
O       1.074226   -0.201558   -1.159997
C       0.757313   -0.685526    1.106988
C       0.061723   -1.338730    2.240782
O      -1.094247   -2.083378    1.766973
C      -0.251802   -2.945409    1.060268
O      -0.562695   -3.933581    0.483026
C       0.997877   -2.178482    1.400692
H       0.387419    1.943436    0.355242
H      -0.895001    1.657671   -0.835538
H      -1.189874    1.296799    0.870934
H      -0.765434   -0.799897   -0.393048
H       0.669601    0.098046   -1.980223
H       1.619416   -0.093349    1.411876
H       0.078316   -1.078637    3.289707
H       1.977227   -2.591493    1.590184
