19

C       0.048069    1.407524   -0.221701
C      -0.055006   -0.085056   -0.019531
O      -0.377070   -0.635674    1.002476
O       0.266784   -0.743242   -1.157233
C       0.220757   -2.171685   -1.090398
C      -1.147179   -2.857174   -1.309030
C      -0.413618   -3.876841   -2.226179
O      -1.045281   -4.367418   -3.378241
C       0.758766   -2.861438   -2.356700
H      -0.186602    1.917230    0.711839
H       1.055517    1.674161   -0.552879
H      -0.645915    1.727253   -1.004515
H       0.703889   -2.499952   -0.168873
H      -1.692014   -3.219704   -0.436836
H      -1.799825   -2.207917   -1.903401
H      -0.106283   -4.762194   -1.662995
H      -1.339504   -3.614265   -3.901443
H       0.608606   -2.212114   -3.225990
H       1.784961   -3.233288   -2.357991
