17

N      -0.084562   -1.175057   -0.142975
C      -0.050987   -0.020776   -0.082409
C      -0.005543    1.434191    0.008358
C      -0.585326    1.999473    1.349570
N       0.239969    3.170331    1.691289
C       1.666224    2.920939    1.959838
C       2.169819    1.618034    1.325079
C       1.418823    2.026186    0.017640
C       1.203246    3.437971    0.634357
H      -0.566812    1.844550   -0.838989
H      -1.622996    2.317638    1.226190
H      -0.552808    1.257249    2.150877
H       2.106852    3.445810    2.799769
H       3.252735    1.646583    1.186939
H       1.896302    0.666049    1.790777
H       1.961539    1.922814   -0.919990
H       1.265872    4.408859    0.158432
