17

C      -0.165634    1.569876    0.027794
C      -0.013421    0.063202   -0.053000
C      -1.062106   -0.645805    0.658760
N      -1.925882   -1.190606    1.201070
C       0.588516   -0.667263   -1.238882
C       1.393430    0.128127   -2.203086
C       2.466431    0.631528   -1.590766
C       2.490697    0.214311   -0.137972
N       1.290966   -0.636194    0.058409
H       0.501581    2.081710   -0.665842
H      -1.194838    1.849540   -0.212748
H       0.044527    1.917601    1.044585
H       0.139377   -1.607981   -1.546185
H       1.123512    0.250731   -3.243878
H       3.221278    1.267005   -2.038566
H       3.379474   -0.379571    0.108913
H       2.482329    1.067615    0.552295
