15

C      -0.061664    1.494995    0.101014
O       1.244495    1.928857   -0.299449
C       2.119300    0.821631   -0.613175
C       1.279441   -0.393851   -0.386219
C       0.041758    0.010144    0.019740
N      -0.737652   -1.089948    0.231556
C       0.018072   -2.214252   -0.044849
C       1.280724   -1.814453   -0.432709
H      -0.277948    1.872097    1.113197
H      -0.814488    1.927295   -0.577122
H       2.467456    0.932232   -1.650426
H       3.003469    0.877201    0.038351
H      -1.695562   -1.099643    0.534980
H      -0.407460   -3.199834    0.058221
H       2.088178   -2.474598   -0.710402
