14

C      -0.352448    1.458447    0.015088
C       0.003840    0.005374   -0.005517
N       0.161162   -0.563958   -1.141996
O       0.495386   -1.926744   -1.164451
C       0.663361   -2.684992   -0.030569
N       0.963772   -3.908840   -0.064092
N       0.481383   -2.019187    1.168963
C       0.154478   -0.693727    1.304615
O       0.003601   -0.146687    2.374377
H       0.405354    2.022590    0.567223
H      -0.431007    1.840304   -1.002986
H      -1.300091    1.604770    0.542253
H       1.059259   -4.237096   -1.022383
H       0.603619   -2.571988    2.007505
