11

O      -0.017453    1.298464    0.009302
N       1.311053    1.788358   -0.000838
C       2.084890    0.745351   -0.013912
N       1.369879   -0.421127   -0.013360
C       1.366908   -1.813815   -0.020818
C       0.032599   -2.136656   -0.009730
N      -0.801435   -1.022225    0.004319
C       0.050482   -0.043391    0.001387
H       3.160437    0.821384   -0.023847
H       2.266813   -2.401799   -0.032664
H      -0.389397   -3.130432   -0.011029
