18

C       0.061592    1.467854   -0.079016
C      -0.016588   -0.026886   -0.047476
O       0.574392   -0.711271   -1.184433
C      -0.215778   -1.850840   -0.787638
C       0.191837   -2.226973    0.657453
C       0.345364   -0.859040    1.213418
N      -0.982027   -1.554732    1.311256
C      -1.275776   -0.958792   -0.080406
C      -2.667048   -0.634774   -0.512004
H       1.106051    1.795045   -0.034029
H      -0.380703    1.862507   -0.997761
H      -0.466513    1.895654    0.778625
H      -0.365012   -2.598656   -1.563943
H       0.642872   -3.125135    1.059157
H       0.926702   -0.594592    2.088084
H      -3.119897    0.105833    0.155732
H      -2.667748   -0.231475   -1.530145
H      -3.296404   -1.530790   -0.494728
