20

C      -0.077942    1.516741    0.008051
C       0.024148    0.017208    0.015601
C      -0.818195   -0.851813    0.915497
C       0.678633   -0.927528    1.033242
C       1.241670   -1.799431   -0.095361
C       0.618038   -0.813926   -1.138202
C      -0.310657   -1.357454   -2.208168
O       0.474795   -2.135987   -3.102999
H       0.860522    1.978391   -0.320872
H      -0.870391    1.863869   -0.666750
H      -0.307814    1.902566    1.006938
H      -1.322061   -0.315086    1.713990
H      -1.383341   -1.700370    0.536184
H       1.191207   -0.676802    1.954898
H       2.331946   -1.822011   -0.141010
H       0.872746   -2.830372   -0.127752
H       1.413807   -0.250743   -1.637140
H      -1.106151   -1.966429   -1.751415
H      -0.801174   -0.520514   -2.733114
H      -0.112982   -2.531473   -3.753084
