18

C       0.020839    1.503089    0.064493
C      -0.033843    0.008050   -0.023486
C       0.572644   -0.855766   -1.095137
C      -0.261659   -2.130162   -1.239125
C      -0.670073   -2.232724    0.250322
C       0.698479   -2.055896    0.929719
N       1.182681   -0.815633    0.245542
C      -1.208280   -0.804294    0.468348
O      -2.261471   -0.424413    0.903273
H       0.956451    1.881210   -0.354290
H      -0.815506    1.949311   -0.482249
H      -0.047620    1.833591    1.105491
H       1.144404   -0.429937   -1.911565
H      -1.117161   -2.004319   -1.908918
H       0.330481   -2.985397   -1.579794
H      -1.319016   -3.046285    0.560647
H       0.636747   -1.883427    2.008060
H       1.397404   -2.875080    0.737601
