20

O      -0.060241    0.109602    0.326705
C      -0.015123    1.284353    0.067985
C       1.248347    2.110182   -0.008429
C       1.405930    2.787968   -1.380951
C       2.628555    3.708196   -1.448736
C       2.777732    4.380614   -2.819930
N       3.926485    5.270168   -2.902650
C       3.857244    6.579236   -2.543019
O       2.851572    7.141335   -2.162495
H      -0.947696    1.857904   -0.149774
H       1.185477    2.886714    0.767900
H       2.101621    1.465769    0.223195
H       1.479372    2.015510   -2.157701
H       0.501125    3.367611   -1.607494
H       2.548237    4.492511   -0.687406
H       3.537232    3.135867   -1.220965
H       2.867344    3.626472   -3.609559
H       1.891707    4.985345   -3.032820
H       4.826564    4.889445   -3.146393
H       4.835111    7.090206   -2.648489
