18

C       0.007285    1.556609    0.295217
C       0.083074    0.130051   -0.262736
C      -1.290084   -0.550802   -0.248345
C      -1.931883   -1.435159   -1.291308
C      -0.983531   -2.537008   -1.856766
O       0.319497   -2.400743   -1.271631
C      -0.717176   -3.045812   -0.517952
C      -1.651428   -1.970894    0.118407
H       0.989826    2.038826    0.283018
H      -0.676025    2.178927   -0.294058
H      -0.352422    1.560674    1.330607
H       0.477479    0.153323   -1.281578
H       0.796680   -0.456535    0.321043
H      -2.057857    0.111067    0.155893
H      -2.892922   -1.214047   -1.738636
H      -1.055072   -3.029766   -2.818742
H      -0.523584   -4.045033   -0.147270
H      -2.369647   -2.213661    0.891593
