21

C      -0.175031    1.542975    0.050327
C      -0.032097    0.023878    0.000074
C       1.181240   -0.472183   -0.849257
C       2.000010   -0.645962    0.461826
C       0.663114   -0.612522    1.230643
O       0.589427    0.171072    2.425976
C       1.048915   -0.414443    3.553944
C       0.899521    0.514832    4.734952
O       1.509482   -1.527481    3.591382
H       0.774982    2.032586    0.287286
H      -0.514627    1.921179   -0.919545
H      -0.900367    1.848311    0.809900
H      -0.996786   -0.425810   -0.253019
H       0.983517   -1.424741   -1.346765
H       1.572690    0.231534   -1.587620
H       2.617884   -1.537040    0.579038
H       2.603566    0.237451    0.685948
H       0.299579   -1.618886    1.448692
H      -0.153031    0.777125    4.875130
H       1.284275    0.028662    5.630537
H       1.443688    1.445596    4.551376
