17

C      -0.056293    1.480082    0.129449
C      -0.009686   -0.006012   -0.005878
N      -0.002721   -0.668206   -1.142985
C       0.055223   -1.999865   -0.803647
C       0.085480   -2.147716    0.554105
N       0.050948   -0.863389    1.068463
C      -0.009466   -0.506910    2.466437
C      -1.440148   -0.293630    2.966775
O      -1.704030    0.332021    3.956497
H       0.830638    1.876762    0.638155
H      -0.096466    1.909406   -0.872070
H      -0.935028    1.824437    0.687059
H       0.076795   -2.772521   -1.556946
H       0.138554   -3.010345    1.198174
H       0.436287   -1.312787    3.060920
H       0.570404    0.397702    2.667743
H      -2.220446   -0.778536    2.338214
