17

C       0.527585    1.435713   -0.015652
O       0.765748    0.047348    0.022713
C       0.028772   -0.608297    1.024352
C       0.303369   -2.088891    0.968553
C      -0.078848   -2.941999    2.001841
N       0.127305   -4.258489    1.972285
C       0.737026   -4.724670    0.879938
N       1.158743   -4.016004   -0.166368
C       0.936624   -2.699417   -0.112251
H       0.808137    1.922057    0.931444
H       1.139690    1.847582   -0.820722
H      -0.530821    1.661093   -0.218937
H       0.288685   -0.215086    2.022918
H      -1.052326   -0.422212    0.889637
H      -0.569683   -2.549377    2.892220
H       0.910100   -5.797574    0.842884
H       1.277288   -2.103301   -0.952384
