19

C       0.733104    0.388078   -0.601179
C      -0.607931    0.723209    0.005077
O      -0.884993    1.819138    0.446601
C      -1.645995   -0.383221    0.110326
N      -1.269917   -1.752848   -0.310627
C      -1.838089   -2.344049    0.935508
C      -1.889120   -0.936811    1.531628
C      -1.367923   -0.416537    2.811808
N      -2.821483   -0.456825    2.527632
H       1.384605    1.261974   -0.568647
H       1.182371   -0.455181   -0.067961
H       0.603486    0.050840   -1.635791
H      -2.583716   -0.004113   -0.323311
H      -1.716164   -2.067492   -1.164539
H      -2.840000   -2.777776    0.822267
H      -1.182747   -3.075252    1.419897
H      -1.035888   -1.109551    3.580234
H      -0.868891    0.547777    2.805372
H      -3.142984    0.475690    2.274592
