18

O      -0.096957   -0.092344    0.163998
C      -0.070358    1.118250    0.085994
N      -1.209312    1.854886   -0.096737
C      -1.369606    3.299019    0.024348
C      -0.067039    4.019460   -0.311744
C       1.088184    3.398624    0.472515
C       1.258454    1.912282    0.084973
C       2.269355    1.251978    0.900813
C       3.125201    0.770139    1.591947
H      -2.044495    1.286205   -0.075706
H      -2.171220    3.617038   -0.650990
H      -1.683605    3.567382    1.045016
H       0.129934    3.943683   -1.388288
H      -0.172781    5.082480   -0.074769
H       2.026912    3.927999    0.286480
H       0.892720    3.469115    1.549149
H       1.587517    1.876557   -0.965021
H       3.870822    0.314629    2.195093
