20

C      -0.051254    1.558110    0.132094
C      -0.019343    0.034649    0.013945
O      -1.332830   -0.494016   -0.104439
C       0.724202   -0.463728   -1.247607
C       2.170031    0.059642   -1.363831
C       2.907950   -0.456314   -2.595060
O       4.167966    0.194920   -2.623899
C       0.702849   -1.932743   -1.273706
N       0.734494   -3.087772   -1.298464
H       0.943011    1.980930    0.298652
H      -0.483152    2.006665   -0.768366
H      -0.676474    1.845751    0.984088
H       0.488375   -0.389409    0.894318
H      -1.797369   -0.344993    0.724698
H       0.142398   -0.117295   -2.112307
H       2.149431    1.151452   -1.417115
H       2.740329   -0.212195   -0.468716
H       3.018403   -1.548159   -2.537869
H       2.320273   -0.231702   -3.500995
H       4.692185   -0.196169   -3.328636
