15

C       1.033900    0.494429    0.508548
C      -0.341928    0.301156   -0.087668
O      -1.367106    0.629460    0.466167
C      -0.412156   -0.322955   -1.441556
C      -1.624351   -0.428313   -2.376451
C      -1.088815   -1.835679   -2.766915
O      -1.528903   -2.752759   -3.388099
C       0.134138   -1.662871   -1.858534
O       0.751545   -0.434702   -2.258629
H       1.622144   -0.427155    0.461379
H       1.582999    1.243795   -0.071730
H       0.934371    0.827665    1.541769
H      -2.581160   -0.506415   -1.855024
H      -1.677933    0.328946   -3.160060
H       0.740861   -2.386584   -1.325597
