23

C       0.031575    1.737967    0.063155
C      -0.067489    0.221004    0.084088
C      -1.390741   -0.335435   -0.426635
C      -1.662441   -0.063766   -1.904209
O      -2.866275   -0.738299   -2.244460
C       1.176646   -0.594648   -0.196956
C       0.592449   -0.573651    1.195613
C       1.344686    0.045130    2.344405
O       2.247637   -0.935693    2.844548
H       0.991846    2.095457    0.441939
H      -0.073399    2.126500   -0.955573
H      -0.759268    2.193770    0.671128
H      -1.413337   -1.421987   -0.285958
H      -2.223284    0.072188    0.161529
H      -1.754449    1.017435   -2.088897
H      -0.815047   -0.427716   -2.507343
H      -3.060914   -0.556871   -3.168360
H       1.085256   -1.503817   -0.782111
H       2.109656   -0.061167   -0.351500
H       0.058799   -1.471902    1.495929
H       1.888372    0.943440    2.016422
H       0.637535    0.360633    3.129183
H       2.674770   -0.573575    3.626658
