20

C      -0.253840    0.980395   -1.788003
C      -0.008381   -0.215213   -0.892999
C       1.340666   -0.625625   -0.389008
C       2.626788    0.104070   -0.711851
C       0.313023   -0.054322    0.602510
C       0.481680    1.301198    1.255043
C      -0.322352   -1.075820    1.470950
O      -0.690450   -0.891134    2.605733
H       0.437833    1.803529   -1.599779
H      -0.144492    0.693461   -2.839583
H      -1.270072    1.365037   -1.653318
H      -0.679811   -1.044366   -1.109596
H       1.481039   -1.701739   -0.302354
H       2.487916    1.179744   -0.834455
H       3.368208   -0.045539    0.079812
H       3.054940   -0.280178   -1.644129
H       0.950249    2.032307    0.595109
H      -0.489987    1.696048    1.566079
H       1.094275    1.214378    2.157257
H      -0.444183   -2.074243    0.984508
