14

O       0.107159    1.397789   -0.044302
C       0.046112    0.006705   -0.059343
C      -1.370267   -0.518050   -0.018688
N      -2.320950    0.366547    0.024879
C      -3.646957   -0.060187    0.064139
O      -4.612439    0.661734    0.105222
N      -3.805100   -1.462039    0.052407
N      -2.849584   -2.383026    0.008046
C      -1.630410   -1.929420   -0.027904
H      -0.813603    1.705628   -0.009116
H       0.532976   -0.401739   -0.961844
H       0.591079   -0.423960    0.798658
H      -4.753698   -1.812648    0.080115
H      -0.834616   -2.663840   -0.064675
