19

C       0.380325    1.527484    0.000136
C       0.127885    0.032088    0.053343
N       0.985420   -0.792165   -0.855383
C       1.345691   -1.720603    0.252722
C       2.621150   -1.254632    0.923566
N       3.835773   -1.547412    0.844235
O       1.966690   -0.330690    1.729722
C       0.643289   -0.783029    1.270807
C      -0.257499   -1.138998    2.418400
H       1.431522    1.744234    0.201494
H       0.130578    1.919941   -0.990596
H      -0.236083    2.052701    0.738120
H      -0.942701   -0.178832   -0.082369
H       0.473307   -1.245508   -1.602191
H       1.166882   -2.786359    0.115242
H       4.399439   -0.973333    1.474437
H      -0.499408   -0.245439    3.004688
H      -1.194311   -1.570745    2.053790
H       0.225230   -1.860344    3.083843
