21

C      -0.075287    1.578519   -0.014650
C       0.038857    0.053046    0.030030
C       0.782587   -0.559334   -1.182763
C       1.536509   -1.788986   -0.632699
C       1.659783   -1.500851    0.845765
C       2.549075   -2.305076    1.735249
C       0.840510   -0.495176    1.210434
C       0.656562   -0.009381    2.527345
C       0.469041    0.432601    3.634227
H       0.915696    2.042051   -0.074565
H      -0.652100    1.898420   -0.888840
H      -0.572668    1.963832    0.880252
H      -0.979573   -0.360033    0.089731
H       0.109959   -0.801622   -2.009886
H       1.507123    0.172550   -1.557860
H       0.971646   -2.721115   -0.785693
H       2.510038   -1.944466   -1.113179
H       3.594352   -2.240608    1.406458
H       2.489686   -1.968404    2.772648
H       2.279558   -3.368931    1.700078
H       0.312003    0.813713    4.612497
