18

O      -0.172030    0.015241    0.120346
C       0.026164    1.195005    0.253727
C       1.324626    1.912062   -0.018844
N       2.506531    1.111439   -0.476884
C       2.176152    0.569708   -1.812309
C       2.569338    1.988656   -1.722522
C       1.411722    2.838572   -1.256878
C       0.341062    3.501948   -2.076213
C       1.322948    4.330778   -1.276262
H      -0.782587    1.877795    0.609900
H       1.593496    2.455160    0.896540
H       2.924875   -0.136816   -2.156862
H       1.152233    0.296124   -2.041269
H       3.513885    2.374192   -2.093507
H       0.445711    3.479768   -3.156033
H      -0.685492    3.452027   -1.728739
H       0.962322    4.836365   -0.385783
H       2.089982    4.876913   -1.816409
