16

O       0.414890    1.227492   -0.185975
C       0.129396   -0.147031   -0.040551
C       0.234543   -0.584289    1.465301
O       0.893572    0.297895    2.308215
C      -1.334005   -0.703410    1.528028
N      -2.039403    0.455166    2.090600
C      -2.471960    1.123485    1.109328
O      -2.218343    0.701328   -0.172611
C      -1.396021   -0.474679   -0.012087
H      -0.382289    1.647819   -0.534054
H       0.722340   -0.734204   -0.750564
H       0.693029   -1.572371    1.575160
H       0.792153    1.173094    1.907680
H      -1.725768   -1.627511    1.958399
H      -3.056401    2.034896    1.164958
H      -1.754688   -1.249261   -0.688578
