20

C       0.094315    1.439225   -0.394857
C       1.315096    0.661487   -0.059021
C       2.040716    0.850373    1.260759
C       1.931500   -0.441499    2.085270
C       0.473780   -0.758887    2.372667
O      -0.129874    0.221579    3.254021
C      -1.158134    0.533529    2.295316
C      -0.554564   -0.430367    1.245203
N      -0.013566    0.027076   -0.035616
H      -0.214882    2.200671    0.317978
H      -0.160264    1.667795   -1.427052
H       1.939255    0.299256   -0.875202
H       3.087375    1.110154    1.077917
H       1.602427    1.669752    1.839703
H       2.384647   -1.281617    1.543569
H       2.459972   -0.344774    3.040046
H       0.363986   -1.768887    2.786614
H      -2.153767    0.238710    2.650262
H      -1.178623    1.600463    2.046824
H      -1.223502   -1.264860    1.021980
