18

C      -0.455708    1.185207    0.264200
N      -0.131853   -0.223264    0.190986
N      -0.211019   -0.863975   -1.004826
C       0.207260   -2.103002   -0.758564
N       0.323587   -3.034961   -1.791308
C       0.546198   -2.274059    0.603291
C       0.318191   -1.036608    1.180484
C       0.497871   -0.591821    2.597813
O      -0.700898   -0.101514    3.198364
H       0.407027    1.809084    0.001837
H      -1.260248    1.390150   -0.444004
H      -0.786773    1.420692    1.276338
H      -0.185819   -2.738214   -2.614128
H       0.043196   -3.968002   -1.521121
H       0.912494   -3.161122    1.095448
H       0.920479   -1.428440    3.170972
H       1.209005    0.238816    2.667639
H      -1.377140   -0.777334    3.078849
