17

C      -0.023302    1.576360    0.200612
C      -0.013553    0.080993    0.076033
C      -0.831095   -0.865369    0.909086
C       0.675906   -0.961254    0.952504
C       1.224163   -1.646342   -0.325277
O       0.165312   -2.039599   -1.174450
C       0.543266   -0.657310   -1.200160
C       1.031379   -0.069248   -2.463314
O       1.351907   -0.706258   -3.436566
H       0.940111    2.016431   -0.082861
H      -0.794737    2.026728   -0.435585
H      -0.229978    1.873351    1.233435
H      -1.271954   -0.413758    1.792449
H      -1.415711   -1.653701    0.452297
H       1.262287   -0.805156    1.847921
H       2.187495   -2.123415   -0.463352
H       1.106603    1.040116   -2.442296
