21

C       0.091197    1.507417   -0.060698
C      -0.005179   -0.020144   -0.020076
C      -1.447706   -0.543465    0.026059
C      -2.295982   -0.193613   -1.208178
N      -1.768494   -0.699778   -2.490639
C      -2.847379   -1.440350   -1.804640
C      -2.383111   -2.609908   -0.960023
N      -0.921762   -2.829996   -0.953899
C      -1.547881   -2.071936    0.147192
H       1.135079    1.836386   -0.073109
H      -0.391773    1.912730   -0.956081
H      -0.389520    1.965041    0.812318
H       0.477816   -0.454708   -0.899750
H       0.535735   -0.396830    0.857602
H      -1.959388   -0.115197    0.899684
H      -2.856160    0.736734   -1.210910
H      -2.174688   -0.158964   -3.251117
H      -3.833085   -1.481330   -2.255923
H      -3.048969   -3.456199   -0.828626
H      -0.735418   -3.778397   -0.635076
H      -1.552471   -2.512937    1.140209
