18

N      -0.108627    1.330885    0.180168
C      -0.019916   -0.055917    0.160059
O       1.036237   -0.657326    0.107581
N      -1.239647   -0.695013    0.179691
C      -2.516328   -0.229975   -0.395891
C      -2.829945   -1.700114   -0.716272
C      -4.116137   -2.404948   -0.559115
N      -3.491665   -2.236283   -1.890793
C      -1.419007   -2.091418   -0.256492
H       0.772938    1.771405    0.396235
H      -0.901381    1.741497    0.650303
H      -3.186300    0.267102    0.316553
H      -2.388741    0.411274   -1.278463
H      -4.138340   -3.428346   -0.194074
H      -4.995971   -1.815047   -0.312462
H      -3.957223   -1.496386   -2.411511
H      -0.741893   -2.379954   -1.066765
H      -1.351865   -2.824789    0.552545
