16

N       0.132352    1.302827    0.272842
C       0.082587   -0.078257    0.100815
N      -1.070158   -0.725126   -0.038466
N      -0.701260   -2.014017   -0.255792
C       0.637861   -2.188846   -0.240904
C       1.200935   -0.950305   -0.016585
C       2.658123   -0.581319    0.053478
C       3.019180    0.122500    1.286490
C       3.287224    0.723774    2.293054
H       0.845674    1.587604    0.933294
H      -0.771070    1.679851    0.529273
H      -1.415255   -2.705511   -0.397704
H       1.090659   -3.156927   -0.391560
H       3.271751   -1.485193   -0.039023
H       2.930137    0.056849   -0.799452
H       3.543857    1.235525    3.187402
