17

C       0.107405    1.495216    0.227413
C       0.038582    0.047377    0.104184
C      -0.016931   -1.152528    0.009197
C      -0.044995   -2.582571   -0.122844
O      -0.601605   -3.348663    0.964107
C      -1.305693   -3.346411   -0.276673
C      -2.664789   -2.682942   -0.284912
C      -3.666852   -3.446745    0.560502
O      -4.769289   -3.760688    0.192914
H       1.142217    1.848061    0.162626
H      -0.465366    1.989865   -0.564456
H      -0.298224    1.826341    1.189446
H       0.855205   -3.027710   -0.545977
H      -1.242990   -4.289898   -0.821847
H      -2.564318   -1.675873    0.139920
H      -3.053569   -2.595537   -1.303702
H      -3.302310   -3.696120    1.581005
