23

C      -0.107634    1.552951    0.095526
C      -0.032944    0.053692   -0.143557
O      -1.306604   -0.501911    0.112963
C      -1.369510   -1.916209   -0.009102
C      -2.671679   -2.420445    0.646873
C      -3.205981   -3.562308   -0.256380
C      -4.732564   -3.593664   -0.392920
C      -2.470493   -3.314501   -1.555826
C      -1.486394   -2.427559   -1.430948
H       0.865685    2.018729   -0.086164
H      -0.842359    2.011046   -0.572735
H      -0.407458    1.761320    1.126505
H       0.285132   -0.149432   -1.179189
H       0.721040   -0.406685    0.518123
H      -0.476572   -2.346462    0.478830
H      -2.533544   -2.722604    1.687718
H      -3.374906   -1.580956    0.634870
H      -2.886396   -4.533535    0.151126
H      -5.104793   -2.653623   -0.814461
H      -5.056800   -4.409193   -1.048506
H      -5.211400   -3.739287    0.581168
H      -2.728223   -3.840817   -2.470133
H      -0.811051   -2.118609   -2.220930
