22

C      -0.094280    1.479837    0.036172
C       0.042204   -0.049685    0.047526
C      -1.256506   -0.611608   -0.543708
N       1.288952   -0.644101   -0.657649
C       2.102164   -0.069133    0.539397
C       0.850887   -0.691769    1.244599
C       0.168094   -1.559320    2.334111
C      -0.037006   -2.637307    1.177822
C       1.098748   -1.874294    0.372290
H       0.579582    2.000898    0.717264
H       0.076938    1.861788   -0.977058
H      -1.115012    1.754494    0.320527
H      -1.577195    0.044545   -1.359610
H      -1.139814   -1.609288   -0.964138
H      -2.065363   -0.625940    0.195365
H       3.049867   -0.585314    0.706520
H       2.255115    1.007368    0.471136
H       0.856176   -1.919178    3.103982
H      -0.730108   -1.161991    2.815779
H       0.261082   -3.656866    1.433965
H      -1.049168   -2.663751    0.784772
H       2.049458   -2.405450    0.449680
