19

C      -0.074380    1.542197   -0.013531
C      -0.015662    0.011441    0.023189
C       0.737800   -0.499673    1.252672
O       2.069197   -0.016222    1.181805
C      -1.407505   -0.613344   -0.022905
O      -2.024711   -0.245679   -1.258189
C      -3.349832   -0.455166   -1.357780
N      -3.944945   -0.241591   -2.450362
H       0.934116    1.958904    0.013330
H      -0.578830    1.888421   -0.918135
H      -0.624555    1.930520    0.853092
H       0.531025   -0.342969   -0.859868
H       0.234597   -0.146714    2.169080
H       0.718836   -1.601837    1.271080
H       2.531588   -0.284654    1.980687
H      -1.344796   -1.708673    0.040612
H      -2.018304   -0.257470    0.820075
H      -3.810991   -0.803601   -0.422324
H      -4.939257   -0.432131   -2.345379
