24

C       1.972432   -0.813840   -0.880421
C       0.688814   -0.345880   -0.225060
C      -0.107217   -1.255721    0.684165
C       0.496497    0.014096    1.235906
C       1.525652    0.101416    2.371561
C       2.282193    1.438458    2.237405
C       0.736699    0.099740    3.698905
C       2.546485   -1.049497    2.421754
H       2.477890   -1.589812   -0.302533
H       1.752938   -1.238439   -1.866751
H       2.680106    0.009803   -1.029802
H       0.089135    0.270447   -0.891809
H      -1.184358   -1.325129    0.572616
H       0.365107   -2.196245    0.950949
H      -0.234978    0.813032    1.353441
H       1.587412    2.285571    2.234605
H       2.979125    1.581924    3.070877
H       2.857007    1.475006    1.306439
H       0.186178   -0.838136    3.827283
H       1.410723    0.216771    4.554764
H       0.011089    0.919865    3.730552
H       3.233661   -1.031401    1.573312
H       3.151861   -0.962434    3.330679
H       2.058780   -2.028909    2.449871
