21

C       0.034488    1.515000   -0.096243
O       1.307863    1.578061    0.578931
C       1.482301    0.150763    0.482188
C       0.022174   -0.021835   -0.030741
C      -0.959366   -0.636296    0.967219
C      -0.820936   -2.164736    1.000914
C      -0.923556   -2.725534   -0.423175
C       0.067659   -2.003276   -1.335382
O      -0.120618   -0.592864   -1.314928
H      -0.753080    2.041642    0.455257
H       0.086050    1.891291   -1.125272
H       2.239403   -0.124083   -0.264028
H       1.738345   -0.296977    1.449662
H      -0.797109   -0.198781    1.958275
H      -1.976160   -0.365026    0.654404
H       0.153347   -2.436584    1.430179
H      -1.582526   -2.604669    1.652738
H      -0.723052   -3.802695   -0.440689
H      -1.938812   -2.574355   -0.810163
H       1.100091   -2.249207   -1.032921
H      -0.051672   -2.304589   -2.379717
