16

C      -0.154789    1.643561   -0.102629
C      -0.009298    0.153703   -0.009616
C      -0.093768   -0.868936   -1.103876
N       1.087990   -1.673935   -1.115047
C       1.723535   -1.379894   -0.049495
N       1.091340   -0.407831    0.847012
C       0.383634   -1.404199    1.656150
N      -0.797962   -1.708136    1.285700
C      -1.078163   -0.886793    0.149219
H       0.750277    2.102993   -0.512657
H      -0.993116    1.899182   -0.758471
H      -0.346482    2.082988    0.881498
H      -0.575370   -0.682170   -2.055212
H       2.650077   -1.849175    0.261015
H       0.911229   -1.880709    2.474503
H      -2.118993   -0.710176   -0.090243
