21

C       0.220934    1.416503   -0.198684
C      -0.108769   -0.061885    0.051271
C      -1.623957   -0.275227    0.175658
O       0.370609   -0.833887   -1.074697
C       1.325855   -1.780203   -0.646171
C       1.364852   -3.112608   -1.350812
C       2.470163   -2.098462   -1.574975
C       1.464719   -1.608425    0.815139
C       0.656322   -0.636602    1.224370
H       1.299668    1.551727   -0.310820
H      -0.270182    1.762216   -1.113467
H      -0.124006    2.039660    0.633176
H      -2.127279    0.059147   -0.736702
H      -1.847531   -1.334172    0.327898
H      -2.030235    0.291826    1.019867
H       1.580375   -4.004402   -0.771513
H       0.645154   -3.248961   -2.150260
H       2.475570   -1.569517   -2.521474
H       3.450640   -2.288388   -1.150796
H       2.135489   -2.206108    1.419038
H       0.529396   -0.274310    2.236645
