19

C      -0.010900    1.546057    0.236250
C       1.280604    0.797273    0.013875
C      -0.049654    0.055372    0.002858
N      -0.528288   -0.578859   -1.196949
C      -1.046453    0.171719   -2.329512
C       0.286657   -0.487944   -2.430939
C       1.596783    0.242744   -2.420097
C       1.734772    1.722837   -2.306519
N       2.086782    0.879595   -1.175325
H      -0.217610    1.901766    1.239869
H      -0.374168    2.208948   -0.539824
H       1.899770    0.642191    0.892207
H      -0.254124   -0.559036    0.874397
H      -1.908771   -0.275024   -2.819129
H      -1.081478    1.256915   -2.284317
H       0.339859   -1.433630   -2.965368
H       2.380118   -0.295714   -2.948510
H       2.574102    2.225081   -2.782098
H       0.829405    2.322659   -2.268527
