15

C      -0.023857    1.504632    0.060169
C       1.297919    0.783992    0.020831
O       1.981302    0.545304    1.228914
C       1.319121   -0.449205    1.974489
C       0.003999   -0.116692    2.628603
C       0.030470   -0.820106    1.283647
C       0.016562   -0.011787    0.003165
H      -0.326530    2.006433    0.971081
H      -0.326359    2.014806   -0.848944
H       1.966939    0.899246   -0.825407
H       2.002278   -1.156948    2.432079
H      -0.279270   -0.720837    3.484780
H      -0.307951    0.918448    2.694540
H      -0.312361   -1.845771    1.223733
H      -0.335377   -0.510407   -0.891615
