14

C       0.014324    1.518043   -0.027937
C      -0.043342    0.033215   -0.005371
C      -1.095396   -0.802670    0.098468
O      -2.410950   -0.522921    0.287052
N      -0.626127   -2.120011    0.028569
C       0.765542   -2.137506   -0.061938
O       1.507276   -3.099243   -0.083494
N       1.090691   -0.791099   -0.121122
H       0.622072    1.916862    0.793980
H       0.440652    1.899001   -0.964495
H      -0.995193    1.921465    0.075993
H      -2.902513   -0.711248   -0.522283
H      -1.155225   -2.941979    0.262988
H       2.046356   -0.481788   -0.144958
