17

C      -0.022661    1.469192    0.033344
C       0.000419    0.014377    0.028922
C       0.023190   -1.192688    0.026178
C       0.027939   -2.607850    0.022162
C       1.143984   -3.425177    0.019870
N       0.711309   -4.725601    0.011613
C      -0.663474   -4.768233    0.000700
N      -1.309160   -6.021851    0.042608
C      -1.119684   -3.472626    0.004066
H       0.497293    1.883622   -0.838557
H      -1.050499    1.849087    0.012743
H       0.460043    1.878270    0.928896
H       2.191667   -3.175380    0.019554
H       1.291146   -5.542706    0.094913
H      -2.255022   -5.921515    0.390322
H      -1.366500   -6.456058   -0.874696
H      -2.150809   -3.156798   -0.020707
