21

C      -0.110696    1.505615    0.199461
C       0.023417   -0.005580    0.047114
C       1.103128   -0.459854   -0.978647
C       2.085465   -0.721638    0.193754
C       0.880372   -0.689631    1.177927
O       1.079240    0.062236    2.369968
C       0.678293   -0.684184    3.516125
C       0.247807   -2.018526    2.976486
C       0.369565   -2.017152    1.654358
H       0.864071    1.985163    0.332557
H      -0.582993    1.937825   -0.689494
H      -0.719804    1.760846    1.071213
H      -0.967114   -0.451478   -0.091441
H       0.824540   -1.375588   -1.507060
H       1.408660    0.284214   -1.718362
H       2.689671   -1.632154    0.171629
H       2.740404    0.131718    0.385001
H       1.521001   -0.762824    4.220353
H      -0.135213   -0.161329    4.043954
H      -0.103359   -2.829401    3.601793
H       0.135462   -2.829141    0.977133
