21

C      -1.127804    1.413716   -0.807126
O      -0.407854    0.290124   -0.349014
C       0.344153   -0.332470   -1.344503
C       0.930934   -1.719913   -0.968911
C      -0.363215   -2.445616   -0.576639
O      -1.231693   -2.036179   -1.666202
C      -0.362310   -1.197276   -2.434568
C       0.951208   -2.028871   -2.508721
C       2.124867   -1.531570   -3.343931
H      -0.459333    2.178007   -1.234247
H      -1.873004    1.138481   -1.566520
H      -1.644418    1.840955    0.055405
H       1.087345    0.354911   -1.764076
H       1.800546   -1.834214   -0.322561
H      -0.258887   -3.536447   -0.570553
H      -0.780022   -2.105789    0.375281
H      -0.890129   -0.805954   -3.303529
H       0.748443   -3.077686   -2.745895
H       2.391188   -0.489662   -3.150399
H       3.015496   -2.138277   -3.146878
H       1.899183   -1.620675   -4.412356
