18

N       0.090386    1.260243    0.524982
C       0.065718    0.013387    0.331343
O       1.153742   -0.779405    0.124544
C       0.746347   -2.155607   -0.031363
C      -0.654481   -2.228463    0.586769
C      -1.196774   -0.837375    0.280884
C      -2.461111   -0.262086    0.937631
C      -2.967876   -0.090735   -0.507370
O      -1.800291   -0.760739   -1.040763
H       1.045634    1.619454    0.481131
H       0.731430   -2.399693   -1.099081
H       1.490703   -2.779156    0.467755
H      -1.277709   -3.015855    0.160447
H      -0.587339   -2.369415    1.671238
H      -3.018931   -0.982069    1.539068
H      -2.295715    0.657072    1.498130
H      -3.889785   -0.618875   -0.773860
H      -3.028260    0.947167   -0.851345
