23

C      -0.356822    1.480628    0.182840
C      -0.177902   -0.027076    0.251692
O      -1.342764   -0.635440   -0.287003
C      -1.431182   -2.022687   -0.097825
C      -0.447234   -2.836466   -0.916456
C      -1.814802   -2.584485    1.246740
C      -2.751007   -1.630484    2.000595
C      -3.736419   -1.642760    0.789978
C      -2.800262   -2.603171    0.048428
H       0.530750    1.988918    0.571950
H      -0.513536    1.800165   -0.851472
H      -1.223802    1.794298    0.771444
H       0.714653   -0.327123   -0.318220
H      -0.026756   -0.356448    1.290939
H       0.587818   -2.649092   -0.612771
H      -0.637091   -3.906826   -0.796404
H      -0.541718   -2.586781   -1.978181
H      -1.266019   -3.405926    1.695091
H      -3.185122   -2.092721    2.889807
H      -2.330040   -0.660883    2.281371
H      -4.695055   -2.101427    1.041142
H      -3.913325   -0.685180    0.295477
H      -3.118764   -3.438620   -0.565805
