21

C      -0.091543    1.532181    0.140933
C       0.023440    0.013905   -0.035274
C       0.749309   -0.475689   -1.312270
C       0.013388   -0.010158   -2.582499
C       2.209502    0.012840   -1.342983
C       0.739094   -2.014339   -1.265664
O       1.394358   -2.528442   -2.417750
H       0.890042    2.012908    0.191804
H      -0.649622    1.997191   -0.677300
H      -0.618952    1.766701    1.071008
H       0.541321   -0.402880    0.839461
H      -0.986466   -0.418539   -0.022926
H       0.063571    1.076284   -2.698858
H       0.459730   -0.467591   -3.468429
H      -1.044561   -0.296593   -2.552298
H       2.734773   -0.256830   -0.419087
H       2.744566   -0.443825   -2.178745
H       2.265923    1.099330   -1.456014
H       1.244218   -2.352509   -0.346068
H      -0.303725   -2.368672   -1.219308
H       1.378203   -3.488051   -2.369960
