20

C      -0.604057    1.452782   -0.001413
C      -0.039841    0.020739    0.023676
N       0.728801   -0.249835   -1.182786
C       2.017701   -0.677976   -1.313600
O       2.518848   -0.850614   -2.411600
C       2.812056   -0.930082   -0.031520
C       4.143753   -0.154355   -0.088827
C       2.043061   -0.648338    1.227372
C       0.783936   -0.226677    1.251826
H       0.208941    2.184183   -0.006222
H      -1.220441    1.611172   -0.892617
H      -1.232321    1.631542    0.876732
H      -0.901239   -0.668072    0.049905
H       0.266224   -0.106160   -2.070116
H       3.066263   -2.000140   -0.059245
H       3.967431    0.925179   -0.045457
H       4.784012   -0.427844    0.755419
H       4.662172   -0.385425   -1.020805
H       2.577320   -0.805746    2.162050
H       0.278503   -0.037655    2.194609
