19

C      -0.105819    1.535255    0.003034
C      -0.036235    0.046485   -0.037873
C      -0.070487   -0.803025   -1.074721
C       0.046189   -2.178105   -0.455819
C      -0.740379   -2.154651    0.895361
O       0.247553   -3.013287    1.555078
C       1.047328   -2.063478    0.760589
C       2.537680   -2.169586    0.797622
C       0.101439   -0.866573    1.170559
H       0.786554    1.966587    0.474727
H      -0.194650    1.956740   -1.002317
H      -0.964402    1.880647    0.593206
H      -0.156949   -0.575319   -2.128869
H       0.046243   -3.086492   -1.056704
H      -1.797593   -2.349391    1.091092
H       2.860010   -3.155330    0.448525
H       2.980200   -1.406349    0.149773
H       2.909198   -2.024435    1.816672
H       0.156464   -0.469067    2.184010
