20

C      -0.130663    1.564095    0.011386
C       0.024714    0.039070    0.002396
C       0.788299   -0.453188   -1.237355
O       2.157467   -0.074386   -1.173357
C       2.782005   -0.572798   -0.012259
C       4.226521   -0.123327   -0.015744
O       2.167040   -0.087078    1.159282
C       0.798430   -0.466639    1.230401
H       0.848410    2.048746    0.010284
H      -0.682377    1.908058   -0.869651
H      -0.675559    1.898293    0.900389
H      -0.967616   -0.431181    0.003895
H       0.709039   -1.551011   -1.316333
H       0.389689   -0.017163   -2.157944
H       2.702020   -1.679367   -0.017951
H       4.267995    0.968602   -0.010053
H       4.737733   -0.503799    0.871314
H       4.730457   -0.494227   -0.910983
H       0.407417   -0.040695    2.158934
H       0.719793   -1.565261    1.298061
