14

C      -0.704801    0.608580    0.882623
C       0.284359    0.017008   -0.091346
O       1.444930    0.352721   -0.151932
C      -0.182451   -1.073428   -1.033779
N      -1.435919   -1.776137   -0.761053
C      -1.365731   -0.946694   -1.965056
C      -2.213590    0.220641   -2.019342
N      -2.887644    1.156692   -2.095297
H      -0.173524    1.262702    1.574231
H      -1.466623    1.186669    0.348112
H      -1.233378   -0.183568    1.419974
H       0.655810   -1.623588   -1.455606
H      -1.372215   -2.761266   -1.002882
H      -1.246675   -1.431967   -2.930689
