18

C       0.169011    1.498543   -0.034151
N       0.466995    0.079944    0.003967
C       0.474089   -0.624394    1.164564
O       0.276022   -0.140521    2.265920
C       0.751778   -2.120146    0.992559
C       1.511749   -2.613537   -0.220096
O       0.789832   -2.383080   -1.429791
C       0.709028   -2.937182    2.210764
O      -0.397037   -2.940295    1.305388
H       0.904419    2.030281   -0.646089
H      -0.830094    1.691158   -0.443093
H       0.205767    1.875706    0.988155
H       0.517997   -0.447263   -0.858579
H       2.461337   -2.080736   -0.326770
H       1.727549   -3.682613   -0.096945
H      -0.055611   -2.839439   -1.336532
H       1.281228   -3.862782    2.252104
H       0.530796   -2.424831    3.151481
