22

C      -0.053227    1.546351    0.028633
C       0.096192    0.028456   -0.042018
C       1.093802   -0.480821   -1.096451
C       1.308651   -1.957103   -0.718983
C       1.168773   -2.014991    0.832789
C       2.480295   -2.344474    1.535232
O       2.863649   -3.663854    1.174194
C       0.624667   -0.623289    1.250625
H       0.909676    2.023443    0.247532
H      -0.419676    1.956498   -0.918621
H      -0.757277    1.844629    0.813142
H      -0.886422   -0.410547   -0.269527
H       0.741260   -0.345917   -2.123882
H       2.033345    0.081267   -1.002855
H       0.536467   -2.576681   -1.186658
H       2.270602   -2.355491   -1.051725
H       0.456912   -2.799810    1.108737
H       3.249540   -1.611790    1.236005
H       2.350282   -2.253397    2.626283
H       3.715394   -3.851862    1.578633
H       1.443638   -0.006184    1.648243
H      -0.133130   -0.683898    2.037607
