16

O       0.198051    1.166580   -0.637218
C      -0.119511    0.364223    0.489490
C      -1.385207   -0.356982    0.359970
C      -2.411950   -0.968915    0.207354
C      -3.677674   -1.657843    0.032920
C      -4.581741   -1.085617   -1.112384
N      -4.764719   -2.203573   -2.046969
C      -4.123445   -3.177982   -1.557060
O      -3.459362   -3.042772   -0.383652
H       0.168040    0.599783   -1.415189
H       0.682095   -0.358268    0.711597
H      -0.167840    1.051416    1.341425
H      -4.213170   -1.702370    0.986507
H      -5.550416   -0.748517   -0.732173
H      -4.106541   -0.241091   -1.618472
H      -4.043941   -4.165158   -1.999030
