21

C      -0.016864    1.644281    0.000494
C      -0.004444    0.113020    0.033658
C       0.607618   -0.456485   -1.274102
C       0.952858   -1.962797   -1.299870
C       0.164638   -2.876069   -0.351971
O       0.686270   -2.861849    0.969157
C       0.288479   -1.788566    1.797782
C       0.720047   -0.405632    1.276607
O       1.572997    0.233814    1.847891
H       1.004449    2.031089    0.036162
H      -0.498684    2.005696   -0.913157
H      -0.556400    2.056451    0.858032
H      -1.036541   -0.255165    0.098232
H      -0.103627   -0.229054   -2.076049
H       1.513552    0.116373   -1.501280
H       0.829187   -2.333229   -2.323960
H       2.008501   -2.110826   -1.045765
H      -0.911917   -2.640614   -0.349094
H       0.271999   -3.913352   -0.684157
H      -0.807064   -1.790456    1.938198
H       0.772923   -1.950039    2.762862
