19

C       0.112902    1.608971   -0.141211
C       0.049403    0.084800   -0.016327
C       0.672487   -0.634120   -1.206291
O       2.097903   -0.628567   -1.181975
C       1.412014   -1.831678   -0.771200
C       1.295616   -1.901135    0.729721
O       1.537496   -2.864403    1.411394
C       0.754084   -0.547813    1.228244
C       1.890711    0.268503    1.869630
H       1.144520    1.957001   -0.237822
H      -0.438129    1.943008   -1.026759
H      -0.332958    2.098919    0.729693
H      -1.006911   -0.214572    0.011428
H       0.222149   -0.571460   -2.194699
H       1.581437   -2.719451   -1.371682
H       0.015636   -0.768309    2.005092
H       2.672344    0.499101    1.142583
H       1.514019    1.206956    2.285993
H       2.337479   -0.307699    2.684830
