22

C       0.097068    1.647018   -0.032556
C      -0.002939    0.109313    0.017215
C       0.671836   -0.574354   -1.195460
C       2.124018   -0.811989   -0.742209
C       1.990710   -1.238767    0.734419
C       3.238328   -1.044247    1.595579
C       0.763506   -0.464329    1.198580
N       0.486976   -0.376638    2.437506
O      -0.709986    0.338756    2.657581
H       1.134964    1.976150   -0.148839
H      -0.474296    2.033539   -0.882814
H      -0.299668    2.086841    0.883859
H      -1.061175   -0.156850    0.104075
H       0.188004   -1.536575   -1.400219
H       0.599194    0.026349   -2.106787
H       2.648376   -1.555359   -1.348917
H       2.699208    0.120285   -0.805128
H       1.720223   -2.305641    0.752013
H       3.552382    0.004964    1.593438
H       3.042216   -1.331271    2.631488
H       4.069666   -1.649064    1.218862
H      -0.779015    0.321871    3.617753
