15

O      -0.187079   -0.045839   -0.146900
C      -0.090851    1.133452    0.089868
C       1.217684    1.871706    0.036722
C       1.213363    3.302849   -0.582994
O       0.429474    3.788535    0.570011
C       1.490522    2.936613    1.142876
C       2.515591    3.657451    0.207164
C       3.791514    3.065709   -0.123293
C       4.859135    2.585247   -0.396991
H      -0.970478    1.748372    0.363244
H       2.041443    1.211380   -0.235793
H       0.909537    3.621943   -1.579565
H       1.520591    2.814674    2.225242
H       2.580061    4.725954    0.423537
H       5.801267    2.158887   -0.640097
