17

N      -0.027947    1.357320   -0.205408
C      -0.049580   -0.031206   -0.085180
C      -1.134351   -0.877667    0.040051
N      -0.557368   -2.133214    0.246746
C       0.785518   -1.979262    0.209438
N       1.130938   -0.724145    0.009699
C      -2.590800   -0.668705    0.043884
C      -3.227972    0.192398   -0.988903
N      -3.442858   -1.259972   -1.026260
H       0.817840    1.677424   -0.658046
H      -0.851622    1.747655   -0.640614
H      -1.063266   -2.993605    0.374491
H       1.469269   -2.806657    0.326524
H      -3.088651   -0.713051    1.012340
H      -4.103044    0.781042   -0.729810
H      -2.589511    0.635887   -1.748498
H      -2.832832   -1.656298   -1.738714
