17

O      -0.399116    0.592327    0.803298
C       0.211888    0.903225   -0.189112
C       1.387331    1.812794   -0.193635
N       2.281563    1.674645   -1.373154
C       1.522965    2.891383   -1.227489
C       0.469221    3.420109   -2.211463
C       0.736315    4.845507   -1.642517
C       2.022538    4.314270   -0.941435
H      -0.066748    0.527894   -1.198616
H       1.816431    2.011344    0.785743
H       3.250074    1.805819   -1.089777
H       0.803361    3.305843   -3.246694
H      -0.547588    3.031903   -2.126379
H       0.873928    5.645879   -2.370939
H      -0.025793    5.152768   -0.923330
H       2.180663    4.591532    0.103637
H       2.931319    4.544381   -1.507916
