19

C      -0.432918    1.397925    0.502744
C      -0.063139    0.015760   -0.034915
N      -1.219981   -0.707408   -0.539606
C      -1.483429   -2.002248   -0.162393
O      -0.853200   -2.596627    0.696275
N      -2.528623   -2.588397   -0.867972
C      -3.094336   -3.839826   -0.376386
C      -4.394534   -3.670758    0.271772
C      -5.475397   -3.512853    0.773237
H       0.459148    1.914691    0.870543
H      -0.881528    2.024903   -0.276328
H      -1.149830    1.315162    1.324596
H       0.699905    0.109718   -0.820483
H       0.359253   -0.610206    0.753204
H      -1.658790   -0.355152   -1.375290
H      -3.186399   -1.967364   -1.314711
H      -3.187695   -4.556068   -1.202233
H      -2.362001   -4.243112    0.329419
H      -6.422492   -3.383063    1.235620
