19

O      -0.034000    1.329799    0.126774
C       0.055029   -0.047366    0.046365
C       0.619295   -0.927463   -1.114438
C       0.034777   -1.909334   -0.056648
C       0.728802   -1.046227    1.040156
C      -1.202630   -0.959123    0.027479
C      -2.174790   -0.990649    1.177936
C      -2.942913   -2.198785    1.511554
O      -1.874666   -1.757657    2.349540
H       0.855639    1.691576    0.200704
H       0.104004   -0.866301   -2.076676
H       1.706358   -0.942656   -1.231772
H       0.023075   -2.994446   -0.118655
H       1.823074   -1.063154    1.032077
H       0.325306   -1.109573    2.047954
H      -1.773699   -0.878900   -0.906395
H      -2.642684   -0.028817    1.396637
H      -3.940983   -2.109006    1.938101
H      -2.752852   -3.120835    0.963429
