14

O       0.174223    1.372152   -0.242086
C       0.064052   -0.026006   -0.025179
C       0.479430   -0.462051    1.441589
O      -0.718690   -0.920604    2.183798
C      -1.624983   -0.989653    1.213705
C      -1.324664   -0.578210   -0.030515
N      -2.448826   -0.756982   -0.832187
C      -3.322282   -1.258378   -0.024351
O      -2.882100   -1.438533    1.290673
H      -0.620676    1.786810    0.111802
H       0.751658   -0.475770   -0.747219
H       1.175519   -1.303521    1.433294
H       0.905212    0.378264    1.990785
H      -4.338776   -1.559851   -0.214488
