21

C      -0.025635    1.512158    0.080161
C       1.414709    1.994932    0.050204
C       2.305934    0.807417    0.365474
C       1.405957   -0.391375    0.642549
C       0.055261   -0.033261   -0.026262
C       0.009279   -0.559261   -1.473772
O       1.258562   -0.539384   -2.134210
C       1.830276    0.743534   -2.294308
C       2.317966    1.423883   -1.017958
H      -0.481731    1.798589    1.035154
H      -0.649322    1.944583   -0.711602
H       1.634596    2.985954    0.432947
H       3.196624    0.922637    0.974048
H       1.810752   -1.335231    0.267666
H       1.279416   -0.490118    1.727256
H      -0.787378   -0.488796    0.504224
H      -0.286371   -1.613600   -1.472540
H      -0.744697   -0.001224   -2.055217
H       2.689190    0.586030   -2.954649
H       1.127545    1.407578   -2.828030
H       3.196831    2.035668   -1.208361
