23

C      -0.042350    1.502317    0.010582
C      -0.010011   -0.016487    0.001979
O      -1.339772   -0.496148    0.012226
C      -1.429418   -1.902598    0.005470
C      -2.920709   -2.311153    0.017527
C      -3.602422   -1.769292    1.294311
C      -3.626686   -1.755523   -1.240007
C      -2.974461   -3.776245    0.010071
C      -3.008063   -4.978259    0.003873
H       0.974835    1.905129    0.002905
H      -0.572200    1.879970   -0.868532
H      -0.554997    1.870304    0.903880
H       0.519597   -0.388497   -0.891321
H       0.536742   -0.398169    0.880752
H      -0.940208   -2.319128   -0.890012
H      -0.923202   -2.328752    0.886860
H      -3.514050   -0.681117    1.325045
H      -4.660830   -2.042540    1.308816
H      -3.132255   -2.182761    2.191327
H      -3.173844   -2.159193   -2.150301
H      -4.685213   -2.028684   -1.237197
H      -3.538781   -0.667071   -1.260610
H      -3.044529   -6.039429   -0.001659
