16

O       0.055271    0.033141   -0.050955
C      -0.006859    1.217884    0.022129
O       1.140289    1.983739   -0.059226
C       1.012266    3.332895   -0.022186
N      -0.058825    4.023902   -0.026118
C       0.556790    5.403951    0.029171
C       1.702868    5.299807   -1.020848
C       2.220769    4.247775    0.027450
C       1.660650    5.236781    1.115510
H      -0.907411    1.829682    0.159971
H      -0.184385    6.199585    0.037890
H       1.438933    4.937279   -2.016664
H       2.335611    6.188533   -1.078422
H       3.222377    3.824068    0.034794
H       2.290235    6.119367    1.251069
H       1.358041    4.816685    2.077244
