16

C      -0.086271    1.468006   -0.001700
O       1.146337    0.736304    0.001520
C      -0.082076    0.003593    0.007138
C      -0.349279   -0.851338    1.227719
N      -1.745057   -1.308722    1.371038
C      -0.744456   -2.210203    0.762672
C      -0.751660   -2.193336   -0.758976
O      -1.702544   -1.299452   -1.337608
C      -0.351590   -0.848930   -1.214056
H      -0.312526    2.007232    0.916514
H      -0.311361    2.001276   -0.923802
H       0.262573   -0.674368    2.106321
H      -1.894397   -1.591411    2.337717
H      -0.442714   -3.114218    1.278944
H      -0.547322   -3.102474   -1.316802
H       0.178273   -0.628943   -2.137789
