21

O      -0.065039    0.008483    0.603601
C      -0.049846    1.135556    0.184642
C      -1.326349    1.957573    0.041566
C      -2.007630    1.822019   -1.338501
C      -1.330341    2.515340   -2.532852
C       0.054042    1.956292   -2.928803
C       1.265329    2.718008   -2.367157
C       1.263432    2.921210   -0.853882
O       1.147233    1.680405   -0.151798
H      -1.998398    1.543171    0.796049
H      -1.172431    3.012622    0.286677
H      -2.118557    0.753130   -1.558876
H      -3.023312    2.221290   -1.237887
H      -2.009230    2.410024   -3.386426
H      -1.260654    3.595941   -2.345934
H       0.118825    0.902338   -2.632825
H       0.146954    1.960216   -4.020011
H       2.180893    2.187171   -2.651535
H       1.323125    3.714109   -2.826346
H       2.217533    3.345562   -0.529016
H       0.478318    3.619308   -0.550511
