16

O      -0.724263    0.911934    0.627441
C       0.066999    1.079030   -0.267118
C       1.261312    1.996843   -0.216032
C       1.401779    3.153486   -1.218382
C       0.719470    4.385459   -0.600900
C       0.148772    3.970462    0.754042
C       1.413094    3.074721    0.892320
C       2.117182    3.996663   -0.189052
H      -0.038741    0.524934   -1.231392
H       2.161297    1.369076   -0.279743
H       1.603864    3.092113   -2.279779
H       0.422512    5.214691   -1.230390
H       0.186969    4.804534    1.460028
H      -0.826925    3.482259    0.806653
H       1.805610    2.806961    1.869755
H       3.065410    4.512258   -0.224554
