22

C      -0.245178    1.573913    0.016055
C       0.023445    0.082888   -0.120629
C       0.614505   -0.642655   -1.349253
C       1.188190   -1.644109   -0.266885
C       2.316084   -0.702385   -0.135374
N       1.084415   -0.556059    0.739491
C       2.089157   -0.141578   -1.546116
C       2.782462   -1.037107   -2.586551
C       2.418602    1.321487   -1.861786
H       0.647966    2.191740   -0.057014
H      -0.952761    1.903234   -0.753321
H      -0.701269    1.768329    0.992309
H      -0.901648   -0.441344    0.150750
H       0.010257   -0.881918   -2.225250
H       1.052509   -2.695411   -0.050816
H       3.250087   -0.827475    0.399171
H       2.520641   -2.091565   -2.458671
H       2.495989   -0.737207   -3.601110
H       3.872446   -0.948940   -2.514825
H       2.278956    1.986826   -1.010842
H       3.466653    1.410253   -2.169578
H       1.807002    1.694995   -2.691038
