21

C      -0.040899    1.529689    0.014808
C       0.005210    0.019719   -0.001280
C       0.955404   -0.780745   -0.942716
C       0.732368   -1.915035    0.079805
C       0.640592   -0.821431    1.181599
C      -0.308059   -1.373213    2.241912
O      -1.063071   -2.378208    1.545455
C      -0.796850   -2.166086    0.156503
C      -1.312482   -0.755121   -0.241932
H       0.954417    1.960066    0.170183
H      -0.430099    1.922183   -0.931979
H      -0.693593    1.897497    0.815179
H       0.640550   -0.930724   -1.980575
H       1.983020   -0.407318   -0.918112
H       1.381839   -2.785400    0.167215
H       1.586800   -0.418353    1.544786
H       0.223970   -1.847419    3.075389
H      -0.977915   -0.607832    2.660032
H      -1.206292   -3.012474   -0.394785
H      -2.142852   -0.453247    0.402276
H      -1.638800   -0.679361   -1.284310
