16

O       0.002756    1.371490   -0.245956
C       0.014975    0.002572    0.129215
C      -1.409188   -0.500898   -0.002173
C      -2.040093   -0.589896   -1.438550
C      -2.228513   -2.095039   -1.223451
O      -0.943037   -2.659799   -0.965521
C      -1.620652   -2.024786    0.128079
C      -1.866043   -2.787296    1.312137
N      -2.069564   -3.360966    2.295583
H       0.907320    1.697504   -0.230226
H       0.670472   -0.592441   -0.522040
H       0.359644   -0.129745    1.167390
H      -2.068922    0.045186    0.676427
H      -2.978342   -0.038949   -1.518910
H      -1.384815   -0.326083   -2.270392
H      -2.996096   -2.764228   -1.593526
