16

C       0.087503    1.415193    0.068935
O      -0.304158    0.052854    0.312824
C       0.480039   -0.632609    1.132935
C       1.000008   -1.854420    1.059473
O       1.652535   -2.125299    2.261304
C       1.544408   -0.998309    3.038217
O       0.798769   -0.067281    2.355868
N       2.015898   -0.780519    4.174690
C       2.797938   -1.815247    4.827768
H       1.077990    1.449367   -0.397906
H      -0.659598    1.819689   -0.613567
H       0.095924    1.988767    0.998880
H       0.984660   -2.620519    0.307719
H       3.147941   -2.605968    4.152879
H       3.668032   -1.354360    5.306065
H       2.205563   -2.283604    5.623469
