21

C      -0.063307    1.553697   -0.027114
C      -0.044402    0.047732    0.071778
N       1.270346   -0.611145   -0.113085
C       0.609821   -0.674213    1.186529
C       1.295657   -0.221118    2.477870
N       0.912496   -1.505594    3.173821
C      -0.563903   -1.545938    3.134729
C       0.175074   -1.935167    1.911895
C       0.229761   -3.327368    1.358205
H       0.828079    1.980473    0.440400
H      -0.080994    1.876738   -1.073500
H      -0.947886    1.967451    0.469554
H      -0.906174   -0.452224   -0.371402
H       1.162981   -1.491125   -0.613421
H       2.380548   -0.154542    2.375191
H       0.915484    0.678030    2.975139
H      -0.982701   -2.339855    3.746872
H      -1.119554   -0.610212    3.164427
H      -0.594379   -3.508542    0.657632
H       1.172827   -3.512015    0.831829
H       0.149630   -4.060490    2.165635
