18

C      -0.142523    1.363204   -0.203106
C       1.281438    0.975386    0.098063
C       0.208736   -0.081204    0.071500
C      -0.253006   -0.722515    1.350770
C      -1.638016   -1.391186    1.274354
O      -1.520460   -2.492986    2.159447
C      -0.201073   -2.942393    1.983829
O       0.605692   -1.808778    1.729778
H      -0.691549    1.906805    0.559236
H      -0.403014    1.641386   -1.217817
H       2.002552    0.988849   -0.711084
H       1.691022    1.252974    1.063488
H       0.211138   -0.753599   -0.782369
H      -0.237856    0.024733    2.158386
H      -2.454876   -0.754050    1.617518
H      -1.850730   -1.727896    0.246753
H       0.125423   -3.440246    2.903288
H      -0.134637   -3.644457    1.132506
