27

C       0.102768    1.554917    0.155787
C      -0.051866    0.044669    0.053652
O       0.675663   -0.532268    1.120930
C       0.747753   -1.965089    1.213096
C      -0.650612   -2.605430    1.184930
C       1.595523   -2.547950    0.054972
C       2.992994   -1.941552   -0.105433
C       1.440727   -2.211439    2.569740
C       0.664923   -1.716537    3.794584
H       1.155116    1.841550    0.072863
H      -0.457496    2.051725   -0.642288
H      -0.272243    1.912653    1.119061
H      -1.116618   -0.226407    0.108602
H       0.321794   -0.305084   -0.920873
H      -1.099274   -2.554952    0.188509
H      -0.584666   -3.662620    1.460661
H      -1.325605   -2.111214    1.888041
H       1.670661   -3.632167    0.204284
H       1.039185   -2.419862   -0.881457
H       3.463560   -2.298845   -1.026628
H       2.939541   -0.850344   -0.149143
H       3.655036   -2.208003    0.723567
H       1.646405   -3.285024    2.661769
H       2.410552   -1.705128    2.542358
H      -0.256677   -2.283869    3.957592
H       1.273691   -1.816665    4.698590
H       0.399949   -0.662906    3.676715
