23

C       0.047196    1.709582   -0.071706
C       0.063242    0.191319    0.005928
C       1.066157   -0.603666   -0.878830
C       1.270359   -1.588991    0.304503
C       2.660878   -2.141261    0.568909
C       2.740418   -3.058798    1.784743
C       4.127752   -3.540623    2.175306
O       1.754333   -3.387991    2.404345
C       0.690965   -0.500744    1.248898
H       1.050443    2.121965    0.087578
H      -0.303321    2.056629   -1.050511
H      -0.613428    2.140655    0.689159
H      -0.948743   -0.198374   -0.154321
H       0.711221   -1.007597   -1.831075
H       1.972433   -0.015414   -1.068152
H       0.563153   -2.420403    0.233514
H       3.025436   -2.712889   -0.298448
H       3.389826   -1.328138    0.698265
H       4.746878   -2.689693    2.482431
H       4.056099   -4.252330    2.998618
H       4.632173   -4.006815    1.321837
H       1.488767    0.117611    1.679005
H       0.031337   -0.827475    2.054724
