23

C      -0.074846    1.567280    0.141075
C       0.048140    0.043119    0.065341
C       0.632732   -0.442640   -1.266691
C       0.731594   -1.970603   -1.335437
C       1.476313   -2.523560   -2.578984
C       0.822458   -2.083836   -3.900828
N       2.865274   -2.042417   -2.561857
C       1.426864   -4.007935   -2.505313
N       1.430767   -5.162845   -2.439353
H       0.901801    2.048911    0.020600
H      -0.731281    1.951599   -0.647559
H      -0.488095    1.886919    1.102668
H       0.678404   -0.315355    0.889964
H      -0.938758   -0.413172    0.219499
H       0.004317   -0.070939   -2.085463
H       1.627395   -0.009430   -1.417658
H       1.252639   -2.342826   -0.443610
H      -0.269253   -2.416714   -1.308547
H       0.912736   -1.001736   -4.010790
H       1.318866   -2.560231   -4.751442
H      -0.233464   -2.364355   -3.925719
H       3.344964   -2.395942   -1.738287
H       3.368865   -2.405707   -3.366307
