20

O      -0.219926    1.473935    0.007884
C      -0.078890    0.074044    0.008412
C       0.297455   -0.645593    1.336664
C      -0.788746   -1.705976    1.002444
C      -1.637300   -2.222354    2.141499
O      -2.630983   -3.094108    1.592537
C      -3.605115   -3.496555    2.427972
N      -4.471603   -4.328329    2.038674
C      -1.416703   -0.691168    0.006977
H       0.656468    1.869340   -0.035860
H       0.570070   -0.262528   -0.812776
H       1.326394   -0.984888    1.478817
H      -0.000187   -0.022192    2.186480
H      -0.356457   -2.557646    0.468838
H      -1.021314   -2.772612    2.867361
H      -2.120528   -1.386995    2.668202
H      -3.552794   -3.029725    3.422325
H      -5.137621   -4.508912    2.786939
H      -2.185468   -0.083524    0.494831
H      -1.802729   -1.062673   -0.943081
