27

C      -0.200638    1.493140   -0.955944
C      -0.114861    0.095892   -0.318927
C       0.665330    0.161405    1.004486
C      -1.499713   -0.571346   -0.180443
C      -2.386342    0.116872    0.866865
C      -2.288460   -0.781329   -1.512385
C      -2.686606   -2.200891   -1.036471
C      -1.554053   -2.139926    0.030867
C      -0.327227   -2.958184   -0.367648
H       0.802048    1.888648   -1.149863
H      -0.738840    1.471442   -1.908650
H      -0.709853    2.207236   -0.299791
H       0.465690   -0.528603   -1.010092
H       0.214319    0.875754    1.701123
H       0.705942   -0.809872    1.507176
H       1.695788    0.487412    0.827117
H      -2.536803    1.177344    0.638908
H      -3.376094   -0.349301    0.906191
H      -1.954687    0.044895    1.870341
H      -3.095186   -0.074606   -1.726696
H      -1.623107   -0.813681   -2.380863
H      -3.687133   -2.236269   -0.598962
H      -2.608563   -3.006880   -1.771411
H      -1.859967   -2.428141    1.042553
H      -0.007491   -2.744388   -1.393458
H       0.528009   -2.781106    0.291706
H      -0.564929   -4.026943   -0.320260
