14

C      -0.014319    1.473196   -0.010276
N       0.013855    0.023949   -0.026318
C       0.062530   -0.827810   -1.103329
N       0.076672   -2.078806   -0.778928
N       0.034794   -2.060425    0.606317
C       0.033126   -3.220393    1.388001
O       0.067219   -4.334661    0.948655
C      -0.005298   -0.756104    1.128723
O      -0.047109   -0.394204    2.281682
H       0.886081    1.887993   -0.471980
H      -0.897529    1.853766   -0.530854
H      -0.054643    1.777697    1.036901
H       0.086166   -0.476609   -2.124196
H      -0.003957   -2.949245    2.455391
