16

N      -0.243603    1.388731   -0.207434
C      -0.009164    0.137784   -0.246551
N       1.139956   -0.503776   -0.688812
C       1.338307   -1.916369   -0.363856
C       0.116993   -2.657208   -0.873566
C      -0.848052   -3.317189    0.066931
N      -1.135231   -2.014914   -0.510809
C      -1.096390   -0.829092    0.234008
O      -1.848904   -0.583121    1.139696
H       0.560194    1.929581   -0.537817
H       1.963872    0.073906   -0.772541
H       2.247228   -2.266956   -0.858147
H       1.464174   -2.079510    0.717586
H       0.165167   -3.003656   -1.903677
H      -1.466152   -4.136351   -0.287365
H      -0.601200   -3.347189    1.125106
