20

C       0.191915    1.488671    0.049041
C       0.028163   -0.024572   -0.004987
C      -1.431286   -0.434196   -0.209721
C       0.987639   -0.797988   -0.981731
C       1.487018   -1.688188    0.188568
C       2.698506   -1.116736    0.938470
O       1.857522   -0.237391    1.722798
C       0.656281   -0.822828    1.177517
H       1.220376    1.758958    0.300424
H      -0.062475    1.940906   -0.916529
H      -0.464242    1.931329    0.807466
H      -1.809046   -0.063419   -1.169127
H      -1.548156   -1.524271   -0.207156
H      -2.068104   -0.028379    0.584541
H       0.466428   -1.338472   -1.775940
H       1.770114   -0.185645   -1.440100
H       1.405762   -2.769072    0.086561
H       3.221474   -1.836966    1.581465
H       3.436931   -0.567201    0.340668
H      -0.012751   -1.193884    1.961153
