20

C      -0.203001    1.406627   -0.459823
N      -0.159812   -0.049809   -0.448354
C      -1.082802   -0.684047    0.113113
O      -2.224744   -0.269652    0.756141
C      -2.763292   -1.662258    0.782651
C      -3.070365   -2.066841    2.210618
C      -3.943327   -1.780413   -0.160828
C      -1.396841   -2.157529    0.204000
O      -1.408029   -2.872918   -1.002738
H       0.584851    1.798327    0.193834
H       0.015482    1.762016   -1.471997
H      -1.163367    1.823554   -0.134241
H      -3.882485   -1.457169    2.618157
H      -3.378029   -3.116882    2.247559
H      -2.192175   -1.940162    2.850150
H      -3.665950   -1.481943   -1.173414
H      -4.291288   -2.816832   -0.199852
H      -4.766849   -1.148455    0.184787
H      -0.802401   -2.686086    0.960963
H      -0.863077   -2.377438   -1.625339
