20

C       0.467866    1.531500    0.026201
C      -0.048408    0.111957   -0.088857
C       0.405063   -0.739072   -1.293741
C       1.023048   -1.671592   -0.235190
C       0.673860   -3.164264   -0.013605
N       2.126708   -3.553634    0.096531
C       2.722521   -3.176799   -1.194939
C       2.481749   -2.106647   -0.203786
O       0.617105   -0.794543    0.830989
H       1.545170    1.570060   -0.163714
H      -0.037993    2.182116   -0.695834
H       0.282131    1.925554    1.030269
H      -1.133332    0.088564    0.079734
H      -0.390343   -1.174998   -1.900998
H       1.134140   -0.254164   -1.947758
H       0.171513   -3.306716    0.945209
H       0.130271   -3.692696   -0.805136
H       3.742342   -3.529382   -1.316153
H       2.114658   -3.231233   -2.097048
H       3.273403   -1.582016    0.321457
