17

O       0.172245    1.389624   -0.096593
C       0.048470    0.001254   -0.007087
C       0.293818   -0.742199   -1.331606
N      -0.782886   -1.684913   -0.940344
C      -1.339576   -0.698555    0.027193
C      -1.511548   -1.229520    1.422786
N      -2.585813   -1.648355    1.936200
O      -0.308662   -1.158679    2.075049
C       0.728803   -0.637506    1.228271
H      -0.067199    1.783282    0.749959
H       0.049520   -0.088788   -2.178569
H       1.274226   -1.201993   -1.494424
H      -1.419128   -1.966975   -1.675876
H      -2.193760   -0.112320   -0.319989
H      -2.428808   -1.956992    2.898158
H       1.399772   -1.456053    0.950230
H       1.293929    0.106368    1.798382
