21

C       0.073557    1.375310    0.080494
O       0.037397   -0.029311    0.002805
C      -1.274169   -0.546642    0.045061
C      -1.188835   -2.065327   -0.048739
C      -2.561898   -2.741891   -0.049072
O      -3.384692   -2.282414   -1.120719
C      -2.443557   -4.277540   -0.066817
C      -3.786618   -4.968822    0.050581
O      -3.998830   -5.920091    0.758988
H       1.121944    1.679597    0.032077
H      -0.472599    1.845709   -0.752697
H      -0.360270    1.744425    1.023583
H      -1.776698   -0.250851    0.983066
H      -1.880725   -0.146525   -0.782336
H      -0.645876   -2.336349   -0.965079
H      -0.592286   -2.442789    0.789315
H      -3.107873   -2.440516    0.854439
H      -2.913280   -2.449389   -1.945445
H      -1.993395   -4.578001   -1.026017
H      -1.790916   -4.643385    0.731251
H      -4.587088   -4.525634   -0.579302
