18

O       0.148555    1.437681    0.147620
C       0.058064    0.029207    0.139819
C      -1.393567   -0.500577   -0.009540
O      -1.322486   -1.929184   -0.119448
C      -2.206427   -0.119366    1.149110
C      -2.854924    0.151073    2.124351
C      -2.026642    0.032952   -1.297689
C      -1.756491   -0.641500   -2.591471
N      -3.088974   -0.721247   -1.961623
H       0.054215    1.749249   -0.757507
H       0.649718   -0.427233   -0.664978
H       0.459231   -0.317865    1.096906
H      -1.458994   -2.298507    0.758308
H      -3.434176    0.405032    2.977951
H      -2.190598    1.106825   -1.275654
H      -1.714086   -0.058781   -3.507378
H      -1.133214   -1.530050   -2.576555
H      -3.159737   -1.626174   -1.498597
