17

C       0.029655    1.585953   -0.056262
C       0.043910    0.087638    0.018527
C      -0.139810   -0.737290    1.311499
C      -1.210087   -1.786994    1.535009
O      -0.837322   -2.700319    2.553207
C       1.062368   -0.942920    0.457585
O       0.733302   -1.817425   -0.657900
C      -0.149931   -0.856088   -1.147205
O      -0.733069   -0.874269   -2.180854
H       0.618079    1.946091   -0.905681
H      -0.992818    1.958342   -0.175619
H       0.440875    2.026340    0.856593
H       0.063623   -0.129614    2.192472
H      -2.126637   -1.302247    1.885358
H      -1.447960   -2.302207    0.595991
H      -0.106630   -3.228309    2.214358
H       2.107889   -0.851962    0.717317
