23

C      -0.165684    1.591320   -0.078547
C      -0.021854    0.053827   -0.007649
C       0.412205   -0.500693   -1.344314
C       1.636740   -0.961765   -1.606697
C       2.725363   -0.987438   -0.602127
C       3.166913    0.328755    0.032846
C       2.338668   -0.651675    0.818484
C       0.861070   -0.488223    1.156321
C       0.673213    0.277626    2.473447
H       0.796466    2.094401   -0.203958
H      -0.791575    1.867371   -0.933604
H      -0.642267    1.991634    0.820786
H      -1.037086   -0.322594    0.185313
H      -0.332185   -0.478270   -2.137306
H       1.873530   -1.327465   -2.602784
H       3.501513   -1.729756   -0.759402
H       4.212267    0.433874    0.305215
H       2.714486    1.232533   -0.355069
H       2.885920   -1.186064    1.591769
H       0.501385   -1.512874    1.329233
H       1.075095    1.293499    2.410810
H      -0.384166    0.347512    2.750913
H       1.196091   -0.232850    3.289265
