19

C       0.010695    1.559513    0.011765
C       0.020239    0.024086    0.009594
C      -1.394362   -0.554444    0.025224
O       0.711600   -0.484258   -1.143732
C       2.072948   -0.752134   -0.802039
C       1.987606   -1.341766    0.609352
O       3.153923   -1.270447    1.376603
C       0.859105   -0.489707    1.182147
O       0.748835   -0.213247    2.350582
H       1.025087    1.961990   -0.061839
H      -0.567181    1.923575   -0.841981
H      -0.436807    1.932894    0.936737
H      -1.945452   -0.207415   -0.853358
H      -1.367188   -1.647070    0.003341
H      -1.923756   -0.231144    0.925585
H       2.472175   -1.436112   -1.552566
H       2.689327    0.159378   -0.786453
H       1.612013   -2.377973    0.531123
H       2.874637   -1.001542    2.264507
