14

C       0.177427    1.504941    0.084476
C      -0.025007    0.041347    0.014726
C      -1.074227   -0.787336   -0.188042
O      -2.363279   -0.448315   -0.403678
N      -0.684080   -2.118080   -0.161032
C       0.594638   -2.044474    0.066109
N       1.469434   -3.083277    0.260187
O       1.087216   -0.803181    0.184694
H       0.867472    1.869103   -0.687216
H      -0.786165    1.998062   -0.066782
H       0.572126    1.825785    1.056697
H      -2.849520   -1.275281   -0.499979
H       1.134109   -3.959195   -0.111775
H       2.426896   -2.878643    0.014524
