21

C       0.032911    1.503342    0.019998
C       0.037085   -0.010104   -0.067406
C       0.720657   -0.635586   -1.293028
C      -0.058569   -1.967198   -1.510939
C      -0.763376   -2.173361   -0.162307
C       0.318138   -2.225361    0.961413
C       0.263896   -0.729074    1.313935
O      -1.159861   -0.572813    1.605606
C      -1.310619   -0.747667    0.176976
H       1.053818    1.895842    0.095031
H      -0.425369    1.949745   -0.869755
H      -0.525975    1.835315    0.899223
H       0.648145    0.025304   -2.162221
H       1.788789   -0.804853   -1.117533
H      -0.792024   -1.853354   -2.317922
H       0.589308   -2.806798   -1.779191
H      -1.492337   -2.983520   -0.139929
H       0.018634   -2.823977    1.823964
H       1.291149   -2.575612    0.604971
H       0.921737   -0.330647    2.088366
H      -2.276219   -0.433046   -0.221345
