18

C      -0.075111    1.570222    0.054151
C      -0.005842    0.038235    0.008907
C      -1.411005   -0.580137   -0.066365
N       0.858739   -0.434721   -1.074503
C       1.866180   -1.264619   -0.659218
O       2.665705   -1.879638   -1.323016
N       1.796039   -1.252427    0.745363
C       0.742666   -0.506939    1.237402
N       0.373776   -0.265056    2.427356
H       0.929044    2.001276    0.072363
H      -0.601707    1.955752   -0.824925
H      -0.607513    1.887278    0.953645
H      -1.939884   -0.220510   -0.955453
H      -1.355586   -1.671376   -0.113077
H      -1.983742   -0.299043    0.820367
H       0.581209   -0.437945   -2.041416
H       2.469223   -1.753830    1.301159
H       0.980296   -0.709191    3.117596
