15

C      -0.136522    1.499719    0.181366
N       0.072142    0.066642   -0.009877
C       0.516422   -0.485808   -1.269323
C       1.195803    0.439730   -2.264518
O       2.311859    1.031436   -1.579310
C       2.555130    0.404906   -0.384882
O       3.540250    0.618905    0.258258
C       1.411614   -0.521771   -0.071450
H       0.565280    2.153483   -0.352714
H      -1.153642    1.739129   -0.142916
H      -0.062627    1.715518    1.250517
H      -0.018658   -1.353482   -1.642992
H       1.568316   -0.120270   -3.128923
H       0.551053    1.248499   -2.622554
H       1.610753   -1.380073    0.559605
