19

C      -0.060287    1.377319    0.016339
N       0.078781   -0.062557    0.080467
C       0.525596   -0.648779   -0.935298
O       0.669459   -1.994893   -0.939766
C       1.228590   -2.560927   -2.117863
C       1.124659   -4.087388   -1.967255
C      -0.334462   -4.570364   -1.869673
C       1.825763   -4.727701   -3.083661
N       2.370871   -5.221991   -3.974616
H       0.530566    1.837545    0.816048
H       0.254270    1.816818   -0.944237
H      -1.105802    1.652103    0.195136
H       0.824568   -0.156406   -1.873837
H       0.677746   -2.232396   -3.009279
H       2.278074   -2.261369   -2.228805
H       1.652900   -4.358369   -1.044939
H      -0.374093   -5.649954   -1.709620
H      -0.823479   -4.067687   -1.033689
H      -0.880331   -4.339565   -2.789063
