19

C       0.017742    1.457211    0.047691
C      -0.021730   -0.027208   -0.025084
C      -0.060392   -0.887864   -1.048070
C      -0.020924   -2.237401   -0.332415
O      -0.950229   -2.013607    0.779217
C       0.024435   -0.998735    1.172488
C       1.140905   -2.008214    0.730193
C       1.384265   -3.174535    1.676518
O       2.346293   -1.424051    0.316094
H       0.943046    1.800957    0.527299
H      -0.032617    1.907099   -0.947681
H      -0.813500    1.853573    0.644470
H      -0.070092   -0.708373   -2.113041
H      -0.180771   -3.168623   -0.876285
H      -0.087572   -0.624431    2.191145
H       0.442088   -3.601015    2.020045
H       1.954901   -3.964009    1.169981
H       1.966156   -2.843395    2.543432
H       3.029156   -2.101493    0.320099
