17

C      -0.048592    1.525249    0.100715
C       1.280439    0.826952    0.014341
C       0.014707    0.023746    0.047044
N      -0.318048   -0.653405   -1.185337
C      -0.042241   -0.066203   -2.478414
C       1.292998    0.781141   -2.512901
C       2.055378   -0.410972   -2.039149
C       0.729200   -1.252554   -2.004864
N       1.988934    0.810563   -1.244938
H      -0.314419    1.982672    1.046693
H      -0.406733    2.053880   -0.777050
H       1.948373    0.858643    0.868965
H      -0.266462   -0.546847    0.926185
H      -0.834532    0.009515   -3.214734
H       1.534236    1.512743   -3.275914
H       3.022210   -0.797744   -2.337874
H       0.656949   -2.298722   -2.276723
