18

O      -0.112228    1.287899   -0.321344
N      -0.030456   -0.111111   -0.272544
C      -1.134202   -0.642824    0.059298
C      -2.471596   -0.007925    0.337253
C      -3.408953   -1.212654    0.610809
O      -4.728054   -1.042366    0.127752
C      -2.741578   -2.385035   -0.120886
C      -1.242789   -2.158412    0.117030
O      -0.426165   -2.835645   -0.807119
H       0.776241    1.539992   -0.595561
H      -2.429767    0.726013    1.148034
H      -2.815151    0.523414   -0.559113
H      -3.423216   -1.421808    1.692176
H      -5.160183   -0.367103    0.659948
H      -3.094330   -3.359835    0.220499
H      -2.947367   -2.297341   -1.193488
H      -0.993893   -2.477565    1.146479
H       0.347714   -2.276404   -0.949095
