17

C      -0.227801    1.524805   -0.055894
C       0.100814    0.021570    0.008520
C       0.806069   -0.490568   -1.209348
C       2.047685   -0.976735   -1.316267
C       2.335253   -1.373107   -2.724562
O       3.356730   -1.822405   -3.200369
N       1.160258   -1.116951   -3.404871
C       0.140641   -0.528793   -2.572004
H       0.682988    2.118286   -0.179559
H      -0.896078    1.756557   -0.890985
H      -0.722873    1.847798    0.864410
H       0.720306   -0.180184    0.888335
H      -0.833295   -0.539767    0.148068
H       2.780163   -1.090925   -0.529155
H       1.095906   -1.215668   -4.403290
H      -0.779672   -1.131654   -2.544429
H      -0.145385    0.478244   -2.909368
