20

C       0.512987    1.369192    0.155480
C      -0.029507   -0.015661   -0.151351
O       0.731249   -0.570229   -1.207736
C       0.295772   -1.868268   -1.561459
C       1.103768   -2.395703   -2.651634
C       1.761222   -2.847647   -3.555043
C       2.537621   -3.402844   -4.625869
C       3.978886   -3.031057   -4.764524
N       3.615282   -4.383623   -4.335787
H       1.564173    1.311902    0.451426
H       0.439602    2.013289   -0.725185
H      -0.053977    1.828039    0.970968
H       0.030018   -0.662820    0.740816
H      -1.094189    0.038382   -0.437024
H       0.356891   -2.544576   -0.690263
H      -0.765837   -1.849900   -1.865218
H       1.985244   -3.636866   -5.532293
H       4.410606   -2.964283   -5.759048
H       4.384860   -2.335687   -4.036190
H       3.719589   -4.459693   -3.326547
