14

N       0.114817    1.407246    0.127472
C      -0.019966    0.006807    0.043463
C      -1.104594   -0.835393    0.030676
C      -0.605017   -2.182267    0.005914
C       0.775556   -2.099731   -0.004883
N       1.113708   -0.773238    0.023403
C      -1.372098   -3.369723   -0.018970
C      -2.040249   -4.372628   -0.040065
H       0.321371    1.830296   -0.773291
H      -0.739752    1.826456    0.472951
H      -2.142919   -0.543858    0.022396
H       1.520977   -2.876511   -0.033422
H       2.044565   -0.402710    0.109041
H      -2.624451   -5.258265   -0.058253
