21

C       0.335281    1.575754   -0.142475
C       0.303627    0.060818   -0.054957
O       1.224722   -0.486812   -1.010971
C       1.336335   -1.875639   -0.687746
C       1.428514   -1.902311    0.834207
C       2.768770   -1.309246    1.400012
O       3.759878   -1.002312    0.448699
C       1.979124   -0.104398    1.984478
C       0.681918   -0.600124    1.287646
H       1.332550    1.970086    0.068417
H       0.048615    1.901595   -1.146072
H      -0.367450    2.011401    0.574327
H      -0.709961   -0.288231   -0.318129
H       0.451601   -2.424810   -1.044637
H       2.225906   -2.265396   -1.187369
H       1.114730   -2.848891    1.276808
H       3.258310   -1.938937    2.146721
H       3.340841   -0.452278   -0.227783
H       1.910397   -0.114252    3.075424
H       2.365295    0.871561    1.678603
H      -0.188536   -0.711402    1.936368
