21

C      -0.044460    1.586917    0.403301
C       0.002230    0.096185    0.064250
O       0.756924   -0.627194    1.034060
C      -1.380371   -0.506162   -0.130648
C      -2.171783   -1.052283    1.050948
C      -1.647804   -1.978266   -0.022728
O      -2.515798   -2.409801   -1.036575
C      -3.155242   -1.257268   -1.581018
C      -2.208022   -0.060829   -1.331613
H       0.967917    1.975627    0.545447
H      -0.527249    2.161274   -0.393164
H      -0.616245    1.753950    1.324758
H       0.558630   -0.036422   -0.873848
H       0.495386   -0.311096    1.905326
H      -1.664285   -1.102491    2.008434
H      -3.236528   -0.856149    1.120166
H      -0.879599   -2.704464    0.209842
H      -3.349226   -1.446666   -2.640434
H      -4.123290   -1.092168   -1.087402
H      -2.767115    0.866630   -1.173961
H      -1.539096    0.093365   -2.187047
