22

C      -0.582495    0.954201    0.748288
C      -0.028657   -0.442190    0.451371
N      -1.066641   -1.447007    0.289442
C      -1.499477   -1.862220   -0.935362
O      -1.016208   -1.465165   -1.981880
C      -2.661723   -2.861562   -0.925367
C      -2.849459   -3.690252    0.327484
C      -3.684210   -3.177215    1.485476
C      -4.188343   -4.310262    0.627724
H       0.234892    1.672123    0.871361
H      -1.218921    1.295556   -0.072984
H      -1.177140    0.960460    1.668339
H       0.536300   -0.433152   -0.483171
H       0.648291   -0.760650    1.252838
H      -1.557281   -1.780224    1.103474
H      -3.575518   -2.287514   -1.129555
H      -2.509539   -3.502611   -1.799271
H      -1.985164   -4.289205    0.602811
H      -3.366879   -3.402705    2.498059
H      -4.166486   -2.210701    1.375868
H      -5.005306   -4.101110   -0.054895
H      -4.210396   -5.306567    1.054521
