18

C       0.061708    0.569155    1.082842
C       0.409550   -0.704945    0.303657
C       0.593951   -0.449464   -1.177868
C       0.054829   -1.400804   -2.175564
O      -0.597869   -0.163114   -1.931310
C       1.814325    0.359786   -1.574925
C       1.730018    1.179150   -2.846035
O       2.798315    0.349889   -0.869031
H       0.872644    1.300722    1.022699
H      -0.849483    1.028840    0.687906
H      -0.104109    0.341452    2.139581
H       1.337754   -1.138493    0.687826
H      -0.383731   -1.448864    0.430378
H       0.523402   -1.504593   -3.153153
H      -0.459694   -2.289183   -1.811875
H       0.998301    1.982554   -2.708881
H       2.710602    1.603908   -3.062655
H       1.377924    0.587271   -3.695435
