15

C      -0.173829    1.574720   -0.019506
C       0.088190    0.079794   -0.031092
O       1.084879   -0.233795   -1.013183
C       1.871426   -1.252112   -0.576550
O       2.682818   -1.818388   -1.229490
O       1.578523   -1.540346    0.723864
C       0.701202   -0.557958    1.248471
C       1.466371    0.439393    2.117172
O       2.658064    0.570197    2.091729
H       0.740516    2.134250    0.195004
H      -0.546284    1.889079   -0.997190
H      -0.931158    1.826349    0.729485
H      -0.827637   -0.462612   -0.296071
H      -0.063794   -1.047968    1.859334
H       0.816163    1.052787    2.780400
