20

C       0.011077    1.479671   -0.311469
N      -0.019716    0.067554    0.045891
C      -1.122733   -0.494026    0.862540
C      -0.150608   -1.724660    1.078315
C       0.835074   -0.538098    1.101554
C       2.211008    0.095499    1.325808
O       1.573927    1.098822    2.185388
C       0.461332    0.171021    2.408466
C      -1.053471    0.365454    2.182084
H       0.931942    1.682523   -0.866770
H      -0.827156    1.673614   -0.989537
H      -0.034861    2.188537    0.524188
H      -2.096044   -0.621415    0.384308
H      -0.247152   -2.314106    1.992435
H      -0.115003   -2.347215    0.185432
H       2.918212   -0.521571    1.893778
H       2.710727    0.547097    0.463962
H       0.667511   -0.393240    3.326271
H      -1.379102    1.392359    2.002964
H      -1.642233   -0.035735    3.011230
