14

C       0.023139    1.426651   -0.137897
N       0.040185   -0.024380   -0.150238
C      -1.037876   -0.649881    0.082364
N      -2.284966   -0.078998    0.358991
N      -3.469582   -0.703538    0.613987
N      -3.506393   -1.953901    0.614763
N      -2.346645   -2.637887    0.357559
C      -1.075878   -2.148058    0.081976
O      -0.142339   -2.879404   -0.126769
H       1.025870    1.799818   -0.353891
H      -0.657995    1.841957   -0.897458
H      -0.279823    1.831996    0.840531
H      -2.377187    0.924512    0.384753
H      -2.458734   -3.642390    0.376000
