11

O      -0.114755    1.175399    0.009479
N       1.132358    2.070915    0.002445
N       2.235544    1.525141   -0.011024
C       2.335316    0.162177   -0.019354
N       3.430796   -0.542986   -0.033797
C       2.977813   -1.869042   -0.036512
C       1.610266   -2.005070   -0.024121
C       1.134067   -0.659627   -0.012369
N      -0.067953   -0.151649    0.001850
H       3.710972   -2.664396   -0.047843
H       1.024012   -2.910119   -0.023357
