16

C      -0.065031    1.590874    0.048712
C       0.022444    0.065172    0.015060
O       0.814154   -0.447982    1.080360
C      -1.368914   -0.582960    0.017805
C      -1.464932   -2.111732    0.175657
O      -2.186252   -1.942498    1.444281
C      -2.078444   -0.582791    1.378337
O      -2.411129    0.218543    2.195181
H       0.939433    2.019907    0.090215
H      -0.570942    1.977222   -0.841807
H      -0.630640    1.923162    0.925943
H       0.544802   -0.252304   -0.895618
H       0.516510   -0.031340    1.898179
H      -1.993985   -0.174486   -0.780762
H      -2.079583   -2.648616   -0.548228
H      -0.514049   -2.616078    0.350431
