15

C       0.016366    1.368626   -0.034442
N       0.027868   -0.077096    0.035238
N       0.119084   -0.802553   -1.094627
C       0.111387   -2.080882   -0.703404
N       0.267816   -3.104561   -1.628460
C       0.002955   -2.190426    0.697820
C      -0.050898   -0.874809    1.137295
C      -0.161379   -0.354659    2.448005
N      -0.253051    0.083014    3.516981
H       0.943694    1.727978   -0.488184
H      -0.829329    1.706816   -0.638918
H      -0.074252    1.769327    0.975645
H       0.086545   -2.797275   -2.574705
H      -0.253018   -3.941474   -1.408556
H      -0.021798   -3.077074    1.308703
