16

C      -0.106274    1.609181    0.070587
C       0.086047    0.099094    0.103669
O       1.189081   -0.388109   -0.732625
C       1.680335   -1.205497    0.349438
C       2.194724   -0.304363    1.408670
O       2.803526    0.911224    1.119093
C       0.696476   -0.583230    1.336948
C      -1.149125   -0.587524   -0.318667
N      -2.130345   -1.113263   -0.627980
H       0.782518    2.107905    0.455555
H      -0.308911    1.939386   -0.952164
H      -0.962685    1.883456    0.693431
H       1.969019   -2.222957    0.114750
H       2.658047   -0.801150    2.257307
H       2.774131    1.009342    0.158075
H       0.127949   -1.020929    2.145700
