16

O      -0.110010    1.420376   -0.046210
C       0.020822    0.056027   -0.025056
C      -1.028390   -1.004025    0.084551
C      -0.500255   -1.735339   -1.144518
C       0.802336   -0.865469   -1.030728
N       1.806760   -1.508381   -0.200161
C       1.317364   -1.703168    1.087948
O       1.820708   -2.394656    1.944378
C       0.083776   -0.848478    1.173441
H       0.666271    1.811619    0.371757
H      -2.058758   -0.914420    0.404304
H      -0.358895   -2.819550   -1.093683
H      -1.082842   -1.475459   -2.032406
H       1.210953   -0.429039   -1.940113
H       2.422751   -2.214551   -0.577516
H      -0.263945   -0.511014    2.140822
