19

O      -0.049992    1.414860    0.026488
C       0.012655   -0.006717    0.002599
C      -1.392617   -0.543524    0.042701
C      -2.318132   -0.484920    1.307498
C      -3.120497   -1.570150    0.514040
C      -3.512680   -0.762987   -0.730183
C      -2.392772   -0.096117   -1.035574
C      -1.702362   -2.094474    0.069590
O      -1.534586   -2.878764   -1.064966
H       0.847983    1.755535   -0.025013
H       0.511735   -0.368968   -0.911276
H       0.583300   -0.395562    0.861024
H      -1.839128   -0.863119    2.217186
H      -2.826447    0.460980    1.496136
H      -3.862419   -2.216357    0.981308
H      -4.479400   -0.752252   -1.213909
H      -2.190868    0.613289   -1.825092
H      -1.175684   -2.604768    0.881416
H      -2.015669   -2.433988   -1.777187
