15

C       0.009372    1.558369   -0.132726
C       0.073556    0.024678    0.008838
O       0.764406   -0.348540    1.174637
C      -1.322659   -0.567404    0.025512
O      -1.772477   -1.092809    1.023151
C      -2.157526   -0.496918   -1.269735
N      -3.394076   -1.013927   -1.108072
O      -1.704185   -0.029578   -2.297220
H       1.027973    1.948954   -0.075903
H      -0.434776    1.841979   -1.088290
H      -0.569119    1.994498    0.687764
H       0.589616   -0.379858   -0.873392
H       0.107182   -0.740260    1.768163
H      -3.651756   -1.401026   -0.214751
H      -4.027722   -1.050526   -1.888644
