18

O       0.006991    1.416775   -0.070080
C       0.094215    0.008434    0.061340
C      -1.296478   -0.586519    0.087506
C      -2.207731   -0.410312    1.343506
C      -2.596877   -1.918082    1.284157
C      -1.732681   -2.095126    0.005718
N      -2.406999   -1.756329   -1.252873
C      -2.094473   -0.417330   -1.215545
O      -2.343892    0.516917   -1.938909
H      -0.560172    1.593634   -0.833265
H       0.681281   -0.443277   -0.755592
H       0.629054   -0.187299    0.997693
H      -1.632073   -0.146058    2.233349
H      -3.018830    0.311889    1.234841
H      -2.216543   -2.492126    2.132473
H      -3.657068   -2.147884    1.156915
H      -1.039486   -2.934540   -0.062006
H      -3.122942   -2.245626   -1.772983
