15

O       0.603807    0.695449   -0.713434
C      -0.068840   -0.238220    0.085391
C       0.098901   -0.207037    1.627686
C      -1.421161   -0.556562    1.773076
C      -1.605503   -0.136182    0.275284
C      -1.667192   -2.021620    2.006090
O      -2.373599   -2.472094    2.871183
H       0.387246    1.578309   -0.394297
H       0.210023   -1.216591   -0.317320
H       0.829588   -0.882211    2.080079
H       0.291751    0.808239    1.988151
H      -1.985356    0.011099    2.513753
H      -1.948021    0.901346    0.211018
H      -2.245149   -0.754384   -0.359615
H      -1.132299   -2.700293    1.297908
