18

C      -0.219402    1.592605    0.165637
C      -0.103466    0.084811   -0.004742
O      -1.332580   -0.566866    0.253409
C       0.539897   -0.496419   -1.293166
C       1.109759    0.396370   -2.374625
O       1.883451   -0.354196   -3.290518
O       1.636196   -1.068828   -0.479868
C       1.082917   -0.584934    0.682318
N       1.424720   -0.700952    1.882130
H       0.714119    2.109902   -0.071130
H      -1.017805    1.982595   -0.471843
H      -0.465695    1.818287    1.208002
H      -1.475671   -0.543467    1.207166
H      -0.054188   -1.306376   -1.721886
H       0.291823    0.848283   -2.946026
H       1.697463    1.209869   -1.924299
H       2.578274   -0.787316   -2.781357
H       2.265881   -1.270007    1.990842
