23

C       0.093189    1.530597   -0.106667
C      -0.027917    0.028261    0.167738
C      -1.455751   -0.493684    0.048233
C      -2.124738   -0.554283   -1.375796
C      -2.306358   -2.068268   -1.179788
C      -3.335436   -2.967086   -1.784424
O      -0.981445   -2.599331   -0.977251
C      -1.666070   -2.020991    0.151783
C      -1.809108   -2.853405    1.384803
H       1.130711    1.867645   -0.017508
H      -0.250653    1.780487   -1.116292
H      -0.508005    2.114482    0.599723
H       0.604556   -0.534314   -0.527929
H       0.349938   -0.187823    1.176303
H      -2.114813    0.030306    0.751019
H      -3.064934    0.000417   -1.431939
H      -1.489894   -0.280119   -2.223237
H      -3.155103   -3.095859   -2.858043
H      -3.308635   -3.955705   -1.317976
H      -4.339261   -2.547136   -1.661784
H      -0.856678   -2.919876    1.923415
H      -2.548463   -2.416919    2.064528
H      -2.121935   -3.870209    1.131882
