18

C      -0.046426    1.617221    0.009477
C      -0.032238    0.101585   -0.004429
C       1.212963   -0.632927   -0.565170
O       1.993464   -0.197017    0.606512
C       0.690213   -0.654361    1.158870
C       0.474484   -0.604144    2.636417
C       0.836265   -1.916279    0.233732
C      -0.324695   -2.711276   -0.122300
N      -1.252426   -3.344887   -0.397264
H       0.927788    2.010917    0.306213
H      -0.295134    2.009860   -0.981861
H      -0.803373    1.991270    0.706975
H      -0.994558   -0.325333   -0.301453
H       1.689659   -0.573839   -1.543045
H       0.491780    0.431442    2.988832
H      -0.496619   -1.041260    2.887835
H       1.256010   -1.163126    3.159066
H       1.698123   -2.535205    0.485765
