17

O       0.100841    1.318376   -0.150124
C       0.028713   -0.055832   -0.044944
C      -0.382758   -0.823930   -1.314945
C      -0.147700   -2.322640   -1.204108
C      -0.752010   -2.255337    0.239068
C       0.365245   -2.077146    1.277718
C       0.924470   -0.694192    0.957627
O       1.849058   -0.112088    1.481061
C      -1.278252   -0.816575   -0.093621
H       0.871729    1.564373    0.384306
H      -0.469172   -0.222740   -2.212428
H      -0.800976   -2.873041   -1.886659
H       0.874939   -2.705307   -1.300096
H      -1.485807   -3.017748    0.493333
H      -0.034167   -2.046154    2.298864
H       1.138728   -2.849928    1.248677
H      -2.251552   -0.378133    0.080000
