21

C      -0.087914    1.557033   -0.309246
C      -0.088746    0.147167    0.293305
C      -1.429482   -0.534591    0.134503
C      -1.781895   -1.257606   -1.136035
O      -0.840091   -1.354168   -2.157006
C      -1.570415   -2.064616    0.143513
C      -0.421822   -2.919549    0.194906
C       0.541742   -3.646725    0.166239
C       1.702199   -4.526884    0.185354
H       0.880449    2.046384   -0.164853
H      -0.291049    1.513678   -1.383328
H      -0.853044    2.190415    0.153690
H       0.684512   -0.456542   -0.189043
H       0.170317    0.191428    1.358362
H      -2.258110   -0.022137    0.618743
H      -2.800750   -1.186526   -1.510078
H      -0.314339   -2.149986   -1.998755
H      -2.462756   -2.460795    0.619318
H       1.877480   -4.925290    1.190865
H       1.573647   -5.379252   -0.491031
H       2.609484   -3.994382   -0.120467
