22

C       0.048539    1.496261    0.091573
C      -0.038109    0.003586    0.050455
C      -1.286227   -0.865582   -0.148415
C      -0.377730   -2.063441    0.218604
C       0.584624   -1.028223    0.916090
N       1.188631   -0.752203   -0.417508
C       0.690142   -2.093101   -0.910379
C       1.771145   -3.139349   -0.647209
C       0.269812   -2.118343   -2.375416
H       1.052490    1.814618    0.384796
H      -0.166039    1.928586   -0.892473
H      -0.671422    1.910871    0.805685
H      -2.007912   -0.658232    0.647436
H      -1.805124   -0.872969   -1.111768
H      -0.793082   -2.978206    0.640717
H       1.120336   -0.987316    1.855823
H       2.067062   -3.153314    0.405714
H       1.408830   -4.138314   -0.912826
H       2.662436   -2.928286   -1.246250
H       1.152233   -2.016480   -3.016069
H      -0.217033   -3.068250   -2.623577
H      -0.414365   -1.306749   -2.629575
