17

C       0.271070    1.504698   -0.101535
C      -0.067338    0.017033    0.098373
C       0.543235   -0.571710    1.319803
C       0.073094   -1.115779    2.467413
N       1.136415   -1.500786    3.278077
C       2.192035   -1.178640    2.601231
C       3.620341   -1.354099    2.971159
O       1.916842   -0.607094    1.396802
H       1.352333    1.649414   -0.176314
H      -0.188364    1.884820   -1.018668
H      -0.092105    2.103881    0.738729
H      -1.151506   -0.116628    0.172457
H       0.257428   -0.549901   -0.783950
H      -0.952308   -1.261207    2.769262
H       4.142129   -1.987885    2.246361
H       4.142462   -0.391961    3.002290
H       3.674474   -1.820224    3.955180
