15

O       0.062323    0.072970    0.116559
C       0.017106    1.269564    0.101242
C      -1.085667    2.281838    0.091625
C      -0.467923    3.601024    0.582919
C      -0.191956    3.163682   -0.812190
C       1.045488    2.375608   -0.221711
C       0.973463    3.301060    1.046292
C       1.848206    4.456662    0.991075
C       2.572951    5.414860    0.945205
H      -2.156114    2.138099    0.040713
H      -1.109683    4.402875    0.924414
H      -0.414753    3.556704   -1.791159
H       1.990608    2.158177   -0.708984
H       1.084427    2.780694    2.005631
H       3.215618    6.259532    0.910152
