21

C       0.110525    1.581104    0.108579
C      -0.004213    0.056893    0.004750
C       0.619038   -0.518586   -1.267199
C       0.516424   -2.054513   -1.398974
C       1.051854   -2.332093   -2.819311
C      -0.281809   -1.630993   -3.129389
O      -0.848131   -2.246337   -1.921041
C      -0.117121   -0.180926   -2.628058
O      -1.373166    0.446878   -2.491498
H       1.158138    1.901394    0.067455
H      -0.427274    2.063485   -0.711020
H      -0.308476    1.943152    1.052770
H       0.494250   -0.407524    0.866113
H      -1.056082   -0.242439    0.069856
H       1.669162   -0.207179   -1.319270
H       0.743420   -2.676921   -0.532919
H       1.988297   -1.863876   -3.133066
H       1.024676   -3.391005   -3.078346
H      -0.871405   -1.793986   -4.031627
H       0.476016    0.452157   -3.291726
H      -1.940386   -0.196099   -2.045837
