16

O       0.104452    0.914292    0.987761
C      -0.070090    0.125643   -0.181049
C      -1.411548   -0.441756   -0.195532
C      -2.511241   -0.927523   -0.224116
C      -3.852323   -1.481657   -0.258929
O      -3.819379   -2.856832    0.111931
C      -5.105416   -3.425221    0.103958
C      -5.008178   -4.839340    0.474222
N      -4.967928   -5.956677    0.761218
H       1.007080    1.248859    0.976847
H       0.074168    0.724537   -1.095205
H       0.658511   -0.700118   -0.223883
H      -4.506852   -0.919985    0.428679
H      -4.283012   -1.375313   -1.268992
H      -5.778786   -2.920599    0.816827
H      -5.576298   -3.355196   -0.890979
