18

C       0.045297    1.530826   -0.005467
C       1.327016    0.716001    0.041323
C       0.001132    0.027160   -0.012907
O      -0.435771   -0.646155    1.160882
C      -1.460454   -1.527203    0.726037
C      -2.578635   -0.763864   -0.024978
N      -1.935032   -1.049745   -1.355954
C      -1.038302   -2.051158   -0.669904
C      -0.467085   -0.795367   -1.181698
H      -0.262738    2.023063    0.909942
H      -0.202301    2.060922   -0.919195
H       1.964664    0.690989   -0.835979
H       1.852491    0.668358    0.988465
H      -1.713336   -2.205935    1.538711
H      -3.543773   -1.275704    0.003653
H      -2.708208    0.293819    0.222334
H      -0.865588   -3.058475   -1.027124
H       0.071049   -0.751407   -2.121002
