18

N      -0.035665    1.319327    0.163717
C       0.009801    0.069207   -0.032884
C      -1.281106   -0.727803   -0.071994
C      -1.447430   -1.748217   -1.216221
C      -0.615454   -2.989965   -0.964219
O       0.217044   -3.487619   -2.013120
C       0.845235   -2.882862   -0.874879
C       1.493162   -1.534304   -1.109293
O       1.221346   -0.584912   -0.068786
H       0.915518    1.692668    0.210501
H      -1.367111   -1.259266    0.885900
H      -2.083016    0.011452   -0.098007
H      -2.504482   -2.021711   -1.291518
H      -1.170591   -1.308487   -2.178687
H      -1.097568   -3.771139   -0.375467
H       1.387725   -3.577460   -0.235009
H       2.582155   -1.623862   -1.119922
H       1.177130   -1.144481   -2.082514
