20

C       0.106798    1.417115   -0.496505
C       0.071816   -0.009519    0.016350
O       0.778537   -0.959706   -0.830797
C       1.275201   -1.670460    0.317525
C       2.710139   -1.294426    0.755748
C       3.476312   -0.196424   -0.020356
C       2.975087    0.793954    1.071408
N       2.161946   -0.279447    1.731503
C       0.759572   -0.576292    1.291006
H       1.111690    1.737999   -0.770213
H      -0.521533    1.497215   -1.389641
H      -0.293125    2.103200    0.257501
H      -0.984023   -0.320253    0.082857
H       0.981574   -2.723512    0.321604
H       3.303011   -2.110263    1.183243
H       4.558347   -0.327957   -0.079528
H       3.075427   -0.020443   -1.019871
H       3.765268    1.126144    1.753117
H       2.424735    1.676749    0.746443
H       0.090319   -0.739574    2.137717
