16

C       0.033978    1.500596   -0.059568
C       0.006354    0.045909   -0.007710
C      -0.017566   -1.156353    0.030807
C      -0.049263   -2.617068    0.081660
C      -1.441114   -3.183177    0.026625
N      -1.987424   -3.802365    1.062164
N      -3.208420   -4.140564    0.580445
C      -3.338441   -3.722018   -0.693670
N      -2.237841   -3.111601   -1.081480
H       1.057851    1.882551    0.020958
H      -0.384563    1.872923   -1.001184
H      -0.547605    1.940423    0.758291
H       0.527596   -3.026703   -0.757136
H       0.423298   -2.975776    1.002230
H      -3.859783   -4.636721    1.165836
H      -4.228710   -3.883404   -1.283018
