17

O      -0.231279    1.359682    0.151749
C      -0.019685   -0.047315    0.029855
C       0.728603   -0.373639   -1.184571
C       1.382431   -0.605879   -2.166484
C       0.662171   -0.628297    1.279208
C       2.025485   -0.008599    1.715972
C       1.459304    0.067499    3.143218
O       1.953217    0.208821    4.223267
C       0.035935   -0.230556    2.651790
H       0.509787    1.808142   -0.267644
H      -1.023576   -0.486961   -0.040476
H       1.943607   -0.820892   -3.042613
H       0.737234   -1.712760    1.166756
H       2.937865   -0.590916    1.574036
H       2.178952    0.996775    1.308090
H      -0.547794    0.692584    2.570775
H      -0.535267   -0.976709    3.208394
