16

O      -0.009798    1.435363    0.056497
C       1.277035    0.807891    0.034575
C       0.040096    0.004440    0.045898
C      -0.031726   -0.625389   -1.339096
C      -0.231982    0.323743   -2.517942
C       1.062905    1.164839   -2.529794
C       1.018557   -0.193131   -3.158536
N       1.422476   -0.795926   -1.806573
C       1.863788    0.605842   -1.356447
H       1.900475    0.979282    0.907068
H      -0.358660   -0.488133    0.927748
H      -0.577991   -1.567976   -1.392502
H      -1.143038    0.690393   -2.972514
H       1.092407    2.142432   -2.992971
H       1.267092   -0.589458   -4.131533
H       2.946263    0.721203   -1.424771
