21

C       0.227220    1.541316   -0.136996
C      -0.089752    0.056295    0.114191
C       0.643594   -0.526530    1.286084
C       0.103187   -1.016128    2.405948
C       1.126818   -1.520859    3.390218
C       2.431101   -1.435914    2.590239
C       3.761324   -1.610739    3.177361
O       3.157002   -2.659602    2.415261
C       2.156722   -0.616099    1.326564
H       1.291424    1.695742   -0.341154
H      -0.333451    1.916869   -0.998327
H      -0.038438    2.150469    0.732873
H      -1.167934   -0.066723    0.266328
H       0.164390   -0.513759   -0.790863
H      -0.962523   -1.048398    2.607677
H       1.161491   -0.902110    4.297997
H       0.952041   -2.552741    3.716462
H       4.626164   -1.133865    2.715597
H       3.861321   -1.805209    4.245418
H       2.582732   -1.117678    0.449067
H       2.619628    0.378744    1.378645
