16

C       0.087515    1.582043   -0.257678
C       0.027275    0.101146   -0.085343
C      -0.375128   -0.896584   -0.942069
C      -0.214251   -2.153979   -0.283462
C       0.277070   -1.867721    0.963042
N       0.419517   -0.511792    1.088966
O       0.648529   -2.663669    2.014694
C      -0.286698   -3.535857    2.500302
O      -0.027737   -4.323279    3.353510
H       1.108829    1.969955   -0.156402
H      -0.270097    1.850810   -1.254086
H      -0.537267    2.111407    0.472567
H      -0.740984   -0.744523   -1.946103
H      -0.409606   -3.136991   -0.680904
H       0.780875   -0.055205    1.909264
H      -1.262633   -3.406301    2.000920
