19

C       0.044664    1.538160   -0.275020
C       1.304590    0.756263   -0.020761
O       2.009858    0.894408    1.182555
C       1.476380    0.204095    2.318280
C       0.366885    1.021747    3.019694
C      -0.930059    0.439799    2.397574
C      -0.381009   -0.551120    1.351076
O       0.855920   -0.996832    1.953467
C      -0.022792    0.043366   -0.009723
H      -0.289133    2.224969    0.493682
H      -0.150203    1.872029   -1.288532
H       1.987390    0.587500   -0.847089
H       2.338824   -0.022034    2.947752
H       0.401344    0.847634    4.097830
H       0.503084    2.090367    2.844618
H      -1.505534   -0.107367    3.147638
H      -1.586101    1.193657    1.960316
H      -1.010464   -1.433488    1.229487
H      -0.245749   -0.592721   -0.859612
