15

N      -0.042476    1.340117    0.012984
C       0.008408    0.062000    0.003721
C      -1.201672   -0.708927    0.008990
C      -2.218761   -1.346991    0.013504
N       1.187732   -0.683833   -0.011815
C       2.581689   -0.213689   -0.020469
C       3.025705   -1.702109   -0.034462
C       1.525868   -2.050708   -0.023658
O       0.866862   -3.046601   -0.024730
H       0.895282    1.746125    0.007521
H      -3.114247   -1.918626    0.017536
H       2.840195    0.362438   -0.913736
H       2.855457    0.350150    0.876089
H       3.551064   -2.029174   -0.932994
H       3.566666   -2.041269    0.850220
