20

C      -0.019065    1.445850   -0.187566
C       0.111037   -0.053054   -0.034884
C       1.474129   -0.726020   -0.088402
C       0.712048   -0.655912    1.202473
C       1.103378    0.025116    2.525072
C       0.525616   -1.223574    3.258872
N       0.188677   -1.787051    1.950554
C      -0.365709   -2.975255    1.637176
O      -0.718026   -3.806461    2.452368
H       0.812829    1.966511    0.297845
H      -0.016787    1.734628   -1.244113
H      -0.949286    1.814727    0.258201
H      -0.702145   -0.628230   -0.472091
H       1.554812   -1.688815   -0.582402
H       2.352241   -0.094199   -0.189714
H       2.174804    0.178386    2.662547
H       0.576351    0.957942    2.732766
H       1.249808   -1.824935    3.815877
H      -0.347204   -1.042143    3.892648
H      -0.469182   -3.115306    0.541430
