15

N       0.183622    1.386721   -0.269520
C       0.058233   -0.001403   -0.118110
C      -1.082624   -0.765893    0.040137
N      -0.658750   -2.047189    0.232157
N       0.671391   -2.174736    0.198630
C       1.120123   -0.936445   -0.003688
C       2.599251   -0.672087   -0.060435
C       2.981000    0.110946   -1.239403
N       3.236802    0.762663   -2.159444
H       0.897654    1.643105   -0.942413
H      -0.686978    1.832308   -0.527817
H      -2.128331   -0.503706    0.031490
H      -1.224169   -2.864724    0.381012
H       2.937355   -0.120708    0.826851
H       3.129561   -1.628739   -0.070216
