16

O      -0.023875    1.301276    0.158841
C      -0.005371   -0.038142    0.039244
N      -0.226482   -0.733811   -1.042687
C      -0.090213   -2.059667   -0.638879
C       0.212761   -2.130635    0.688306
N       0.265340   -0.804744    1.120906
N      -0.247625   -3.162570   -1.499844
C      -1.252113   -3.031688   -2.566947
C       0.193936   -2.984092   -2.892042
H      -0.233814    1.647208   -0.717409
H       0.389881   -2.962819    1.345913
H       0.463392   -0.469341    2.047444
H      -1.831792   -3.929913   -2.759936
H      -1.798656   -2.094690   -2.617435
H       0.606567   -2.015499   -3.158124
H       0.690494   -3.846855   -3.326952
