20

C      -0.006771    1.461154    0.107648
C      -0.011428   -0.045042   -0.013025
C       0.621184   -0.717145   -1.254560
C       0.396814   -2.121483   -0.656342
C       1.142639   -1.940624    0.663806
O       0.767932   -0.609234    1.067376
N      -1.095954   -2.126309   -0.489276
C      -1.647594   -1.865083    0.856867
C      -1.391815   -0.731488   -0.057019
H       1.014310    1.847666    0.051113
H      -0.596981    1.913153   -0.695182
H      -0.435963    1.769403    1.065524
H       0.049251   -0.557709   -2.170775
H       1.670880   -0.451449   -1.407827
H       0.713668   -2.979930   -1.248912
H       0.854898   -2.662460    1.435802
H       2.231029   -2.003745    0.526312
H      -2.663862   -2.230261    0.978852
H      -1.027193   -1.951447    1.740458
H      -2.205565   -0.213558   -0.561877
