20

C      -0.030466    1.519802    0.030078
C      -0.002029    0.014207   -0.003253
C       0.156231   -0.748397   -1.334957
C      -0.745143   -1.809220   -0.685829
C      -0.065213   -2.582107    0.496994
C       1.359032   -2.053167    0.788644
C       0.709633   -0.711821    1.200886
C      -0.641320   -1.461501    1.419790
N      -1.314600   -0.750735    0.266547
H       0.966126    1.929705   -0.174928
H      -0.727590    1.912940   -0.716468
H      -0.348011    1.882849    1.013794
H      -0.378269   -0.226723   -2.134329
H       1.153051   -1.023480   -1.688389
H      -1.448462   -2.375309   -1.299602
H      -0.281754   -3.645981    0.588665
H       1.777090   -2.556425    1.666290
H       2.106617   -2.061585   -0.010383
H       1.201813   -0.070760    1.932925
H      -1.158877   -1.604173    2.369165
