19

O      -0.101603    1.353963   -0.018916
C       0.054576   -0.025173   -0.050888
C       1.100909   -0.710266   -0.915153
C       0.702526   -2.139096   -0.584724
C       0.447811   -2.275005    0.963587
C      -0.746263   -3.206494    0.606007
C      -0.864917   -2.266287   -0.627571
C      -1.178527   -0.892591   -0.013712
C      -0.206392   -0.900543    1.167373
H       0.653031    1.728934    0.448260
H       0.984971   -0.463923   -1.976417
H       2.126727   -0.470845   -0.607708
H       1.255855   -2.957005   -1.043453
H       1.234481   -2.576874    1.655744
H      -0.421305   -4.214691    0.331309
H      -1.588857   -3.257320    1.301674
H      -1.398947   -2.556405   -1.532617
H      -2.170264   -0.466107    0.050084
H      -0.463197   -0.484120    2.132412
