14

C      -0.055486   -1.178554   -0.099144
C       0.024215    0.018321   -0.022609
C       0.080021    1.430269    0.116946
O       0.295222    2.265224   -1.024872
C       1.188664    2.415634    0.075841
C       0.507973    3.335894    1.092599
C      -0.675172    2.295264    1.169893
C      -2.010338    2.743927    0.812034
N      -3.071088    3.108076    0.533095
H      -0.122525   -2.235802   -0.180410
H       2.244005    2.258976   -0.110624
H       1.035240    3.419595    2.044034
H       0.250524    4.326056    0.714901
H      -0.698912    1.796836    2.141417
