21

C       0.099866    1.451392   -0.559838
C       1.525012    1.527626    0.065273
C       1.149751    0.312625    0.959389
C      -0.018035   -0.004129   -0.016539
C       0.302636   -1.116018   -1.016380
C       1.534177   -0.972913   -1.889783
O       1.564783    0.097582   -2.842284
C       2.583116    0.068350   -1.834169
C       2.686724    1.250624   -0.889977
H      -0.593932    2.122871   -0.046203
H       0.012323    1.597095   -1.636669
H       1.745571    2.452459    0.606566
H       1.911948   -0.462377    1.093940
H       0.791463    0.620894    1.945326
H      -0.971710   -0.244937    0.462498
H       0.405648   -2.059919   -0.463370
H      -0.549518   -1.257018   -1.695665
H       1.846402   -1.926443   -2.324946
H       3.556632   -0.228729   -2.234270
H       2.868796    2.136280   -1.514429
H       3.599163    1.110224   -0.294051
