23

C       0.139943    1.134135   -0.433706
O      -0.091455   -0.031820    0.330932
C      -1.372346   -0.586063    0.191549
C      -2.477095    0.196343    0.869671
C      -1.656055   -1.347229   -1.084199
C      -1.406153   -2.090221    0.220358
C      -0.148250   -2.909778    0.408507
C      -0.247885   -4.285548   -0.240497
O       0.966365   -4.976750    0.015160
H       1.193486    1.393073   -0.303105
H      -0.057652    0.966099   -1.502052
H      -0.471615    1.983227   -0.097813
H      -2.618825    1.181279    0.411703
H      -3.428326   -0.338422    0.797604
H      -2.243928    0.343577    1.929447
H      -2.656836   -1.326464   -1.502872
H      -0.859523   -1.379513   -1.820814
H      -2.291758   -2.511461    0.692280
H       0.710241   -2.376388   -0.007964
H       0.057554   -3.044278    1.477387
H      -1.111431   -4.833321    0.172917
H      -0.424867   -4.172554   -1.322225
H       0.910631   -5.843690   -0.396691
