14

O       0.593902    0.360970    0.878641
C       0.051411   -0.431090   -0.114693
C      -1.461266   -0.308306   -0.197888
N      -2.078931    0.374965    0.661769
O      -2.034686   -0.932234   -1.258007
C      -1.125864   -1.598933   -2.124205
O      -0.050474   -0.774285   -2.512968
C       0.629541   -0.127274   -1.507880
O       1.553503    0.578864   -1.752359
H      -0.158266    0.821314    1.287144
H       0.282768   -1.497897    0.072822
H      -3.083702    0.408308    0.496533
H      -0.757805   -2.515600   -1.645165
H      -1.684614   -1.839282   -3.027350
