16

O       0.319128    1.310317   -0.058291
C       0.026305   -0.043510   -0.014900
C       0.127349   -0.881113   -1.308519
O      -1.245083   -1.324844   -1.171994
C      -1.429759   -0.573929    0.039639
C      -1.106793   -1.405518    1.305422
C       0.350626   -0.816076    1.317914
C       1.475455   -1.732027    1.319860
N       2.373684   -2.460280    1.280430
H       1.252270    1.425268   -0.274286
H       0.261648   -0.259843   -2.201975
H       0.841565   -1.711736   -1.316740
H      -2.323044    0.052745    0.028206
H      -1.677205   -1.143153    2.197672
H      -1.167914   -2.479657    1.130478
H       0.471930   -0.085354    2.121234
