21

C       0.036338    1.377693    0.105878
O      -0.091716   -0.019217   -0.080925
C       0.613517   -0.535309   -1.188810
C       2.178600   -0.576560   -1.083371
C       2.135975   -2.056703   -1.555497
C       3.068589   -3.060360   -0.896562
C       0.626838   -2.089473   -1.188986
C       0.149041    0.032230   -2.456158
C      -0.229095    0.497526   -3.498943
H       1.084865    1.673361    0.257278
H      -0.366399    1.941443   -0.745674
H      -0.533412    1.626742    1.003789
H       2.750586    0.140661   -1.674227
H       2.465523   -0.502139   -0.029690
H       2.251749   -2.097500   -2.643279
H       2.968010   -3.032515    0.194370
H       2.848905   -4.082149   -1.225840
H       4.116051   -2.850963   -1.140979
H       0.465272   -2.435805   -0.164158
H      -0.066138   -2.595674   -1.862341
H      -0.567964    0.904876   -4.419462
