14

O      -0.021119    0.028128    0.134463
C       0.000067    1.218802    0.018501
N      -1.004248    2.179519   -0.040555
C      -0.116393    3.331518   -0.065741
C       0.439126    3.776656    1.325581
O       1.490742    2.770604    1.251970
C       1.077283    2.343960   -0.063167
C       0.963844    5.127604    1.383521
C       1.378073    6.255587    1.401875
H      -1.976054    2.112523    0.230971
H      -0.319959    4.095686   -0.812551
H      -0.239539    3.580983    2.163997
H       1.889999    2.285362   -0.786244
H       1.749622    7.250467    1.434050
