11

O       0.059324   -0.055507    0.003167
C      -0.021378    1.142597    0.007404
C       1.150660    2.018697    0.001352
N       2.141927    2.611162   -0.004209
N      -1.246858    1.820364    0.018422
C      -2.504198    1.280947    0.026057
C      -3.325242    2.367552    0.035239
N      -2.554263    3.512005    0.032986
N      -1.312036    3.194966    0.023059
H      -2.665431    0.217331    0.024092
H      -4.401419    2.417081    0.043228
