23

C      -0.150157    1.587229   -0.068087
C       0.009123    0.067654    0.015108
C       0.794155   -0.520146   -1.183800
C       2.187989   -0.080668   -1.163707
C       3.330459    0.293730   -1.117081
C       0.676726   -2.072674   -1.300616
C       1.373847   -2.565205   -2.575599
C       1.228562   -2.796189   -0.065504
O      -0.733993   -2.298212   -1.416233
H       0.822619    2.087948   -0.093315
H      -0.700110    1.877954   -0.970286
H      -0.703898    1.968219    0.795470
H       0.521472   -0.195865    0.946549
H      -0.971125   -0.414906    0.033090
H       0.326038   -0.130519   -2.098900
H       4.338663    0.625916   -1.089711
H       2.446299   -2.357072   -2.551366
H       1.240167   -3.647790   -2.684840
H       0.942294   -2.078691   -3.455260
H       0.660980   -2.530316    0.829275
H       1.157366   -3.881573   -0.201501
H       2.280756   -2.547649    0.099442
H      -0.872926   -3.248232   -1.485521
