15

O       0.361411   -0.026733    0.573201
C       0.275062    1.158429    0.382327
N       1.055722    1.872587   -0.510004
C       1.427374    3.336875   -0.439793
C       2.932892    3.702199    0.065856
C       3.861828    2.648508    0.714361
N       3.246120    1.351449    0.268389
C       2.492107    1.717783   -0.687935
C       2.625356    3.153357   -1.276316
H      -0.490851    1.809530    0.851339
H       0.653271    4.092745   -0.507851
H       3.092788    4.765472    0.226735
H       4.907682    2.807204    0.412206
H       3.824450    2.620569    1.807615
H       2.858079    3.460273   -2.286007
