19

O      -0.059829    1.517905   -0.196473
C       0.020542    0.107376   -0.305457
C      -1.227459   -0.463857    0.377121
C      -1.272508   -1.919593    0.337221
C      -1.284457   -3.123921    0.289824
C      -1.330152   -4.569593    0.250536
C      -1.619701   -5.353225    1.562870
O      -2.659361   -6.116338    0.923914
C      -2.627911   -5.272346   -0.241498
H       0.715132    1.898846   -0.619020
H       0.044787   -0.220728   -1.355365
H       0.920345   -0.290035    0.187458
H      -1.247367   -0.107890    1.414510
H      -2.113231   -0.039281   -0.111172
H      -0.448947   -4.969324   -0.259758
H      -0.812565   -5.988158    1.943509
H      -2.005506   -4.722337    2.373322
H      -3.495496   -4.602789   -0.293299
H      -2.552152   -5.848613   -1.169763
