16

C      -0.031505    1.506190   -0.126931
C       1.293322    0.800529    0.020327
C      -0.021480   -0.005167   -0.065302
C       0.374522   -0.681653   -1.353833
O       0.049021   -1.627600   -2.417679
C       1.423764   -1.110356   -2.747913
C       1.880173   -1.056400   -1.282384
N       2.145144    0.445480   -1.180317
C       1.103315    0.315620   -2.273487
H      -0.387577    2.030436    0.754968
H      -0.297257    1.997411   -1.055671
H       1.844681    0.888433    0.947984
H      -0.411991   -0.557778    0.778839
H       1.875472   -1.500475   -3.656919
H       2.372791   -1.803305   -0.661554
H       0.707152    1.150954   -2.846465
