18

C       0.010282   -1.174755    0.008539
C       0.001234    0.028939    0.008422
C      -0.016795    1.446374    0.007147
C      -0.736810    2.486213    0.860663
C       0.597844    3.190691    1.033929
N       1.218077    2.304719   -0.020289
C       1.154723    2.984262   -1.329625
C      -0.348344    3.307480   -1.593132
C      -1.047187    2.362255   -0.621532
H       0.023828   -2.236249    0.011039
H      -1.488387    2.309941    1.620802
H       0.647552    4.263930    0.816590
H       1.060696    2.999524    2.005605
H       1.797095    3.869186   -1.321761
H       1.537619    2.293238   -2.087295
H      -0.587018    4.356588   -1.389491
H      -0.639607    3.102760   -2.627267
H      -2.016213    1.941604   -0.862808
