19

C      -0.063702    1.604057    0.012465
C       0.035634    0.074356    0.011983
C       1.135898   -0.604746   -0.904724
C       1.726426   -1.315695    0.314163
C       2.164515   -0.282142    1.332515
C       0.717034   -0.609944    1.230546
O       0.028313   -1.028424    2.344169
C      -1.272711   -0.533898   -0.197589
C      -2.350829   -1.058338   -0.309792
H       0.919881    2.055841    0.167198
H      -0.461078    1.967801   -0.939932
H      -0.729284    1.945547    0.810599
H       0.700418   -1.272907   -1.648179
H       1.799119    0.107894   -1.407081
H       2.100823   -2.331101    0.333604
H       2.626825   -0.694818    2.223649
H       2.573007    0.676552    1.019196
H      -0.778284   -1.462525    2.033847
H      -3.305527   -1.503834   -0.444979
