18

C       0.192983    1.521266    0.024402
C      -0.021850    0.028703    0.035352
C      -0.953165   -0.636744    0.994184
N       0.496026   -0.792609    1.145658
C       1.104690   -2.012135    0.575384
C       0.283777   -3.053230   -0.119749
C       1.003918   -1.986974   -0.933094
C       0.284734   -0.702789   -1.267073
O       0.127678   -0.240324   -2.369307
H       1.230545    1.766626   -0.223302
H      -0.449758    1.980236   -0.732601
H      -0.039973    1.952724    1.000822
H      -1.420321   -0.024259    1.761644
H      -1.564526   -1.470180    0.667524
H       2.010951   -2.312434    1.087727
H       0.717137   -4.046048   -0.180912
H      -0.796999   -3.059884   -0.065835
H       1.792660   -2.289449   -1.610785
