19

O      -0.159221   -0.045422    0.020776
C      -0.081288    1.164127    0.045067
C       1.176441    1.931321   -0.002203
C       1.064138    3.276783    0.068421
C       2.091505    4.300465    0.027859
C       3.430458    4.178420    0.072239
C       4.280995    2.953382    0.232576
C       3.605686    1.682329    0.756476
C       2.456993    1.150908   -0.114323
H      -0.997386    1.794006    0.107858
H       0.047994    3.665228    0.139060
H       1.703270    5.312736   -0.060577
H       3.998703    5.103742   -0.010268
H       4.765447    2.745319   -0.734203
H       5.111819    3.212419    0.903701
H       4.373414    0.904958    0.838092
H       3.234504    1.858919    1.772503
H       2.227471    0.114732    0.151692
H       2.776182    1.123541   -1.165795
