18

O       0.044845   -0.052386    0.120776
C      -0.014743    1.160090    0.042036
N      -1.188509    1.852614    0.057325
C      -1.318170    3.295491   -0.104605
C      -0.001313    3.951362    0.234260
C       0.096202    5.426584    0.424631
C       0.268670    4.499761    1.614730
O       1.060842    3.350520   -0.452380
C       1.255474    2.007544   -0.032427
H      -2.018747    1.277729    0.053792
H      -1.597458    3.547073   -1.138122
H      -2.109191    3.668223    0.555250
H       0.986102    5.903061    0.030379
H      -0.809530    6.019102    0.351372
H      -0.518485    4.455691    2.359451
H       1.273093    4.379011    2.004346
H       1.733650    1.968074    0.958442
H       1.930073    1.537626   -0.750461
