17

C       0.042700    1.623854   -0.034790
C       0.053234    0.103332   -0.018288
C       1.126184   -0.651243   -0.862241
O       2.399430   -0.101901   -0.421988
C       2.187487   -0.777275    0.813991
C       0.658972   -0.665883    1.160597
O       0.177212   -0.812602    2.440780
C       1.193611   -1.766657    0.280306
O       0.997357   -3.114876    0.335982
H       1.055970    2.014089    0.089660
H      -0.358043    2.007057   -0.979489
H      -0.585121    2.019086    0.771572
H      -0.932733   -0.317311   -0.244074
H       1.047027   -0.770932   -1.940927
H       2.974330   -0.825904    1.555773
H       0.432921   -0.039563    2.956299
H       1.762098   -3.554238   -0.054556
