13

N      -0.036859    1.343978    0.007742
C       0.010462   -0.001072    0.000733
N      -1.156537   -0.663754    0.004482
C      -1.094092   -1.989163   -0.002500
N      -0.002858   -2.762606   -0.012975
C       1.154931   -2.104193   -0.016692
C       1.241466   -0.713908   -0.010263
C       2.479084   -0.016516   -0.014249
N       3.456027    0.607970   -0.017060
H       0.800823    1.899917    0.005400
H      -0.937847    1.790538    0.015365
H      -2.049592   -2.508902    0.000661
H       2.065709   -2.697627   -0.025166
