20

C      -0.074250    1.564568   -0.061205
C      -0.011500    0.054195    0.020394
N      -1.196466   -0.563052   -0.497258
C       1.370320   -0.646263   -0.196701
C       2.568692    0.102362   -0.408420
N       3.530357    0.726615   -0.578641
C       0.667190   -0.641921    1.171702
C       1.274344    0.136665    2.323717
N       0.101619   -1.935980    1.501744
H       0.863093    2.044829    0.220760
H      -0.296821    1.867598   -1.090385
H      -0.878798    1.941384    0.576912
H      -1.285193   -0.403426   -1.495619
H      -1.175765   -1.561850   -0.320047
H       1.322570   -1.591643   -0.726017
H       1.762040    1.060716    2.009157
H       0.501411    0.391192    3.057792
H       2.029918   -0.475572    2.828873
H       0.812651   -2.529666    1.920054
H      -0.631691   -1.822258    2.197330
