19

C       0.028765    1.544198    0.020646
O       1.462127    1.509757   -0.199489
C       1.432028    0.077456   -0.449687
C       2.363405   -0.759367    0.415670
C       2.093157   -2.234260    0.223428
C       0.924196   -2.873885    0.119011
C      -0.510205   -2.410951    0.212201
C      -0.842096   -0.943198    0.271088
C      -0.019695    0.036818   -0.059338
H      -0.236826    2.000023    0.983049
H      -0.491840    2.084679   -0.782845
H       1.626013   -0.128571   -1.512341
H       3.406228   -0.537269    0.163573
H       2.224057   -0.464385    1.463009
H       2.983526   -2.854942    0.148696
H       0.986144   -3.952271   -0.025518
H      -1.067982   -2.866133   -0.622928
H      -0.946749   -2.895714    1.100236
H      -1.848546   -0.704525    0.610637
