16

O      -0.061001   -0.063735    0.045922
C      -0.018047    1.126441   -0.124178
C       1.266751    1.939554   -0.130344
C       1.305968    2.935395   -1.249293
O       0.288282    3.982853   -1.316445
C       1.123704    4.244939   -2.481411
C       2.460528    3.849051   -1.771747
N       2.875326    2.831141   -2.789500
C       1.379926    2.737506   -2.801711
H      -0.940565    1.725537   -0.281792
H       1.319991    2.485155    0.822660
H       2.125281    1.265443   -0.192040
H       0.874810    5.086286   -3.128738
H       3.156561    4.466334   -1.203018
H       3.209097    3.293424   -3.638446
H       0.814867    2.054896   -3.436937
