15

O      -0.090041    0.076231   -0.326604
C      -0.011952    1.227290   -0.047597
O      -0.991116    2.050506    0.457157
C      -0.076034    3.189263    0.565000
C       1.040727    2.355599   -0.086481
O       2.277956    2.191397    0.615663
C       3.011315    2.638015   -0.540001
C       2.794029    1.707959   -1.685816
C       1.754151    2.768571   -1.366513
H      -0.450375    4.045573    0.000496
H       0.111482    3.448973    1.608348
H       3.863642    3.284581   -0.375642
H       3.379653    1.916511   -2.575836
H       2.581592    0.660718   -1.496253
H       1.423051    3.526534   -2.062160
