17

C       0.082748    1.527192   -0.010913
C      -0.079606    0.049944    0.132903
C      -1.380670   -0.783193    0.049568
C      -0.711809   -1.779203    1.033408
C      -1.365311   -2.463034    2.168904
N      -0.751234   -3.232892    1.064284
C       0.549432   -0.940962    1.030955
O       0.964349   -0.810107   -0.341382
H       1.101357    1.825178    0.250903
H      -0.108549    1.840239   -1.043680
H      -0.619351    2.061542    0.637169
H      -2.260637   -0.288307    0.469678
H      -1.605304   -1.160443   -0.951952
H      -0.856156   -2.558653    3.124697
H      -2.449330   -2.408509    2.238031
H      -1.469961   -3.577594    0.432427
H       1.312391   -0.838878    1.794582
