18

N       0.047465   -1.190239   -0.027123
C      -0.028433   -0.032897   -0.017542
C      -0.075974    1.394346   -0.012457
C      -1.286911    1.989934    0.074170
C      -1.621638    3.403502    0.059154
C      -0.831352    4.489130    0.122364
C       0.655483    4.586481    0.288071
C       1.390532    3.340197    0.787809
C       1.260160    2.101122   -0.112803
H      -2.144989    1.325499    0.128946
H      -2.689016    3.591533   -0.029424
H      -1.334175    5.452361    0.054423
H       1.089412    4.917042   -0.668262
H       0.860886    5.413294    0.982026
H       2.453257    3.589475    0.878445
H       1.042909    3.087827    1.795673
H       2.046499    1.385495    0.143870
H       1.440937    2.381617   -1.159571
