17

O      -0.056921    0.041057    0.627924
C      -0.082782    1.128424    0.123420
C      -1.366719    1.930075   -0.042157
C      -1.313951    3.070332   -1.063081
C      -0.000956    3.830589   -0.893431
C       1.175903    2.867120   -1.090153
O       1.100583    1.713032   -0.220055
C       1.304620    2.425967   -2.480678
C       1.407204    2.076479   -3.625539
H      -2.163772    1.213474   -0.251666
H      -1.576018    2.336803    0.956639
H      -1.370039    2.670774   -2.081505
H      -2.173162    3.734457   -0.931345
H       0.092998    4.648902   -1.612652
H       0.067654    4.260526    0.112806
H       2.108518    3.356130   -0.790727
H       1.508661    1.759223   -4.634414
