17

C       0.046215    1.536047   -0.084247
C       0.024544    0.020664   -0.030807
O       0.708889   -0.477572   -1.179017
C       0.773423   -1.823664   -1.273822
C       0.312798   -2.837444   -0.496613
O       0.637716   -4.023208   -1.053141
N       1.332230   -3.795240   -2.246960
C       1.415718   -2.490569   -2.366231
N       2.097004   -1.865340   -3.391493
H       1.074814    1.906698   -0.085312
H      -0.453315    1.897655   -0.987248
H      -0.470790    1.949031    0.786601
H       0.522817   -0.352768    0.875667
H      -1.006090   -0.363777   -0.028999
H      -0.231736   -2.878267    0.431817
H       2.232980   -2.450090   -4.204304
H       1.730466   -0.953344   -3.623423
