25

C       0.017127    1.394929   -0.046853
O       0.007142   -0.010141   -0.007099
C       0.642502   -0.598292   -1.121413
C       0.587868   -2.128789   -0.994962
C       1.323969   -2.574477    0.281363
C      -0.877675   -2.598460   -0.960297
C       1.291972   -2.707005   -2.232415
O       1.272480   -4.116639   -2.170343
C       1.900880   -4.724124   -3.271242
H       1.042948    1.797361   -0.056078
H      -0.508766    1.783617   -0.933825
H      -0.493763    1.752473    0.850614
H       0.144230   -0.275651   -2.053159
H       1.692193   -0.258771   -1.179470
H       0.848845   -2.144131    1.165607
H       1.316157   -3.663354    0.365670
H       2.369618   -2.244942    0.266303
H      -1.411222   -2.285429   -1.865585
H      -0.927768   -3.687846   -0.900614
H      -1.395566   -2.169225   -0.099846
H       0.786749   -2.363213   -3.152776
H       2.335071   -2.346147   -2.279730
H       2.963233   -4.440608   -3.344576
H       1.833554   -5.805960   -3.131995
H       1.411109   -4.456940   -4.221554
