23

C      -0.193111    1.732129   -0.242170
C      -0.054244    0.205945   -0.116705
C      -1.403201   -0.508461    0.088235
C      -2.048072   -0.240375    1.443189
O      -3.245911   -1.001457    1.503762
C       0.699051   -0.386633   -1.306954
C       0.065244   -0.285744   -2.678662
C       2.159228   -0.537060   -1.206228
O       1.297019   -1.664681   -1.030767
H       0.775440    2.199864   -0.447670
H      -0.877758    2.008003   -1.051409
H      -0.582420    2.173226    0.679641
H       0.570152   -0.009830    0.760415
H      -2.115662   -0.218000   -0.693253
H      -1.252301   -1.589886   -0.001335
H      -1.350849   -0.529523    2.247138
H      -2.260221    0.833207    1.566005
H      -3.663807   -0.836595    2.353875
H      -0.076132    0.757836   -2.977263
H       0.700142   -0.773857   -3.421883
H      -0.912328   -0.777003   -2.696175
H       2.767210   -0.550161   -2.110493
H       2.679174   -0.202611   -0.308599
