18

C       0.002537    1.576254   -0.006841
C       0.098449    0.051842    0.010679
C       0.747590   -0.543214   -1.257125
C       0.941283   -2.051062   -1.119952
O       1.755440   -2.358815   -0.000334
C       1.170275   -1.960585    1.225029
C       0.802312   -0.474149    1.260881
O       1.022400    0.205637    2.235451
H       0.997402    2.026940   -0.078870
H      -0.588418    1.914528   -0.863449
H      -0.459876    1.948770    0.909352
H      -0.918979   -0.370608    0.075701
H       0.128922   -0.318621   -2.133962
H       1.726133   -0.075689   -1.421598
H      -0.036297   -2.557377   -1.031446
H       1.456216   -2.465491   -1.991064
H       0.251949   -2.543485    1.428775
H       1.890568   -2.165854    2.019113
