19

N       0.005998    1.365004    0.116709
C       0.046126   -0.012263    0.075316
O       1.134707   -0.599387    0.088312
C      -1.234202   -0.701630    0.064650
C      -1.319283   -2.064120    0.020211
N      -0.287586   -2.931535   -0.072431
C      -2.755531   -2.529096   -0.008896
C      -3.541497   -1.267311    0.411467
C      -2.613299   -0.074313    0.065664
H       0.884827    1.830019   -0.047611
H      -0.827142    1.853105   -0.165678
H       0.631624   -2.514821    0.040578
H      -0.429759   -3.902133    0.145910
H      -3.013522   -2.856727   -1.025442
H      -2.933027   -3.386649    0.650794
H      -4.520582   -1.200038   -0.069206
H      -3.709106   -1.291206    1.492580
H      -2.719962    0.736996    0.796401
H      -2.875679    0.353684   -0.915027
