19

O       0.112349    1.432106    0.185383
C       0.041659    0.021092    0.068024
C      -1.355941   -0.531007   -0.151070
C      -1.606359   -0.575275   -1.652637
C      -1.236541   -1.839158   -0.897856
C       0.217531   -2.030111   -1.385562
C       0.126709   -1.733973   -2.910537
C      -0.288530   -0.318384   -2.410423
C       0.680067   -0.549653   -1.195411
H      -0.387416    1.804946   -0.549739
H       0.507069   -0.372865    0.978277
H      -2.159480   -0.346540    0.551729
H      -2.582133   -0.412348   -2.090128
H      -1.920764   -2.664520   -0.752920
H       0.782069   -2.871981   -0.985030
H       1.104882   -1.738264   -3.400345
H      -0.595481   -2.301364   -3.505235
H      -0.226781    0.561903   -3.051328
H       1.733152   -0.338649   -1.371355
