12

N      -0.034108    1.329639    0.010643
C      -0.044169    0.070550    0.003729
O       1.067930   -0.754632   -0.006880
C       0.728496   -2.167495   -0.012898
C      -0.760607   -2.122696   -0.004585
C      -1.189282   -0.840555    0.004861
O      -2.497804   -0.783004    0.012182
N      -2.907270   -2.226965    0.006544
N      -1.865036   -2.922163   -0.003072
H       0.920961    1.690134    0.007469
H       1.161981   -2.624399   -0.908438
H       1.171625   -2.634298    0.872763
