19

O       0.230981    1.261037   -0.524095
C       0.045447   -0.045857   -0.004207
C       0.434373   -0.176137    1.500661
O      -0.594847   -0.875933    2.189772
C      -1.762788   -0.960401    1.388660
C      -2.868332    0.099370    1.538114
C      -2.341646    1.489575    1.331151
C      -2.541956    0.624424    0.125495
C      -1.438915   -0.438278   -0.032912
H       1.176504    1.430418   -0.579482
H       0.624307   -0.769313   -0.595218
H       1.369635   -0.732096    1.642266
H       0.574693    0.832437    1.914819
H      -2.148299   -1.981885    1.450008
H      -3.834643   -0.083404    1.992162
H      -3.089375    2.267765    1.451051
H      -1.353319    1.787123    1.659554
H      -3.226965    0.900035   -0.665820
H      -1.662037   -1.148505   -0.829497
