21

C      -0.220235    1.548621   -0.100743
N       0.095356    0.132249    0.063564
C       0.753825   -0.470894   -1.090617
C       1.239206   -1.902310   -0.778770
C       2.373045   -1.950147    0.249979
C       2.921395   -3.360391    0.437656
O       3.938511   -3.296748    1.423405
C      -0.188387   -0.508724   -2.225670
N      -0.906804   -0.544086   -3.129822
H       0.650700    2.174385   -0.363239
H      -0.968830    1.667586   -0.889951
H      -0.650479    1.928404    0.829393
H       0.696429    0.009285    0.869854
H       1.624472    0.120467   -1.438318
H       0.379213   -2.485923   -0.433016
H       1.578544   -2.353864   -1.717533
H       3.197146   -1.295774   -0.060268
H       2.037871   -1.595815    1.232014
H       2.106899   -4.036980    0.743684
H       3.313638   -3.735929   -0.521510
H       4.290132   -4.182240    1.553322
