18

C      -0.009592    1.552410    0.149985
N      -0.011454    0.106803    0.114635
C      -1.263680   -0.602081    0.470801
C      -0.408334   -1.606944    1.236924
C       0.754842   -0.617605    1.149646
N      -0.844988   -2.440581    2.330277
C      -0.341519   -3.088545    1.090973
C      -1.312163   -3.806827    0.302307
N      -2.076194   -4.367876   -0.359678
H       0.996972    1.927320   -0.062517
H      -0.681066    1.940060   -0.622676
H      -0.332642    1.965557    1.124781
H      -1.921214   -0.035983    1.149695
H      -1.847475   -0.967944   -0.379428
H       1.734590   -0.989653    0.829186
H       0.875570   -0.051658    2.090196
H      -0.136308   -2.503664    3.058495
H       0.644587   -3.545108    1.108500
