18

C      -0.310512    1.528299   -0.053901
C       0.014596    0.042377   -0.075792
C       1.370209   -0.399759   -0.670838
O       1.684277   -1.180707    0.499424
C       0.547794   -0.682048    1.209770
C       0.920638    0.249088    2.362956
C      -0.140290    0.423703    3.434272
O       1.984717    0.819147    2.395766
H       0.503196    2.110811    0.387926
H      -0.468209    1.893181   -1.074549
H      -1.226484    1.735018    0.510120
H      -0.817986   -0.520167   -0.505722
H       1.335252   -1.013287   -1.578089
H       2.087119    0.419057   -0.811852
H      -0.091552   -1.494696    1.580494
H      -0.201604   -0.489777    4.038213
H       0.115363    1.264334    4.080245
H      -1.130324    0.575894    2.990110
