18

C      -0.160487    1.491057    0.011395
C      -0.072038   -0.030613    0.008264
N      -1.370830   -0.613073   -0.266231
C       1.159916   -0.561131   -0.775498
O       1.537755   -0.623376   -1.901487
O       1.789513   -1.041467    0.351888
C       0.669863   -0.662944    1.191972
C       0.856089   -0.239612    2.601372
C       0.167106   -1.559957    2.264121
H       0.793672    1.942358    0.294100
H      -0.425392    1.856534   -0.986119
H      -0.931535    1.816710    0.715639
H      -1.745203   -0.239583   -1.133667
H      -1.299050   -1.619498   -0.383285
H       1.859977   -0.292623    3.008056
H       0.253483    0.580280    2.978187
H      -0.907817   -1.629743    2.394146
H       0.720046   -2.472873    2.455903
