18

C       0.029956    1.354001   -0.095549
O      -0.040757   -0.040116    0.134115
C       0.669509   -0.492773    1.225042
C       0.517027    0.028929    2.683939
C       1.869194   -0.693841    2.909306
C       1.665430   -2.170806    2.512869
C       0.807958   -2.025119    1.307376
N       2.302163   -2.057560    1.155040
C       2.238075   -0.543130    1.397160
H       1.069353    1.693842   -0.205985
H      -0.506215    1.547878   -1.026755
H      -0.443650    1.927497    0.712649
H       0.634241    1.115388    2.750109
H      -0.353584   -0.292753    3.262877
H       2.538207   -0.443331    3.728357
H       1.751456   -3.068134    3.113768
H       0.161514   -2.780800    0.879285
H       2.983924    0.123129    0.969904
