16

C      -0.161924    1.407443    0.430030
C       0.096599   -0.060114    0.171917
C       1.460579   -0.533045   -0.296139
C       0.982653   -0.870711    1.077643
O       1.665289   -0.192352    2.132229
C       1.169687   -0.370154    3.358902
O       0.229639   -1.045360    3.674164
C       1.968151    0.391836    4.328095
N       2.557060    0.974595    5.132489
H       0.721480    1.901597    0.842802
H      -0.430334    1.919615   -0.499126
H      -0.985882    1.543172    1.138460
H      -0.756422   -0.610364   -0.216036
H       1.536826   -1.333324   -1.023220
H       2.240716    0.217897   -0.363202
H       0.706556   -1.881945    1.347874
