20

C       0.286260    1.634599   -0.074553
C       0.059875    0.129568    0.033365
C       0.477161   -0.775737   -1.177628
C       1.266352   -1.719593   -0.212894
C       2.740552   -2.008900   -0.494684
O       3.363475   -2.634997    0.607147
C       1.016913   -0.697203    0.878700
N       1.592320   -0.615669    2.005819
O       1.186393    0.520029    2.731488
H       1.321020    1.855783   -0.355826
H      -0.370082    2.062739   -0.839670
H       0.084317    2.130984    0.877031
H      -0.975471   -0.070108    0.336169
H      -0.335797   -1.233897   -1.742481
H       1.136691   -0.248245   -1.873265
H       0.744888   -2.663155   -0.018408
H       2.839240   -2.690866   -1.346810
H       3.246451   -1.066984   -0.767102
H       3.194399   -2.072886    1.376245
H       1.692560    0.435571    3.546626
