11

O      -0.120474    1.355280    0.011209
C       0.071176    0.017640    0.002645
C       1.164805   -0.772196   -0.007968
N       0.684335   -2.098638   -0.012773
C      -0.695091   -2.143258   -0.005188
O      -1.432980   -3.108169   -0.006486
N      -1.051652   -0.789399    0.004436
H       0.736626    1.793513    0.009159
H       2.212257   -0.531303   -0.012558
H       1.241422   -2.933270   -0.020491
H      -2.004668   -0.471640    0.011498
