14

C      -0.032473    1.546234    0.099588
C      -0.011675    0.063023   -0.032041
C       0.040915   -0.802072   -1.109024
N       0.039436   -2.113884   -0.734044
C      -0.013667   -2.079295    0.570702
N      -0.046061   -0.789839    1.040122
N       0.092716   -0.407105   -2.491381
O       0.088836    0.808151   -2.710568
O       0.136431   -1.276109   -3.345955
H       0.857351    1.987697   -0.356267
H      -0.891890    1.969428   -0.426525
H      -0.077824    1.845382    1.150887
H      -0.031369   -2.933953    1.229607
H      -0.088207   -0.504767    2.005981
