17

O      -0.155021    1.100676    0.701545
C       0.024342   -0.146886    0.110500
C      -0.598032   -0.443640   -1.239663
C      -1.120967   -1.101736    0.019908
O      -0.662398   -2.408884    0.257225
C       0.571718   -2.329957    0.950784
C       1.237719   -0.989601    0.527562
C       0.375738   -2.364275    2.463056
O      -0.686518   -2.293608    3.017514
H       0.339749    1.749738    0.189466
H      -1.212927    0.342259   -1.666324
H      -0.057702   -1.061781   -1.949148
H      -2.106477   -0.874386    0.408904
H       1.178535   -3.200858    0.672594
H       1.954971   -1.142321   -0.283971
H       1.757434   -0.500204    1.356059
H       1.333099   -2.446252    3.032681
