13

O      -0.018564   -0.000734    0.004242
C      -0.026548    1.202632    0.009669
C      -1.288809    2.133693    0.032889
C      -0.639107    3.471122    0.030741
C       0.711538    3.372894    0.011412
N       1.096814    2.027079   -0.000923
C       1.158459    4.711025    0.012425
N       0.129031    5.541465    0.031016
O      -1.025783    4.747238    0.042984
H      -1.910393    1.922632   -0.842885
H      -1.885121    1.913196    0.923789
H       2.031966    1.657152   -0.015917
H       2.156024    5.123981    0.000831
