17

O      -0.009071    1.340083   -0.147431
C      -0.025222   -0.052734   -0.027863
C      -0.474209   -0.693825    1.266641
C      -1.096997    0.244757    2.291826
C      -2.173256    0.986636    1.504554
O      -2.633183    2.079078    1.719053
C      -2.583815    0.131492    0.298343
O      -3.065877    0.908954   -0.761413
C      -1.363290   -0.722051    0.014080
H       0.754792    1.678134    0.332805
H       0.753262   -0.570845   -0.586738
H       0.029522   -1.588255    1.614277
H      -1.571849   -0.322594    3.102121
H      -0.404713    0.953811    2.754319
H      -3.379078   -0.548144    0.661944
H      -3.200067    1.795630   -0.394713
H      -1.499405   -1.635961   -0.551254
