20

C      -0.413871    1.659696   -0.116356
C       0.048340    0.218752    0.010032
C       0.817858   -0.480868   -1.200753
C       1.080990    0.331004   -2.465212
C       1.953444   -0.645032   -0.200550
C       3.122969   -1.161200    0.311294
C       3.122202   -0.778254    1.691798
C       1.960018   -0.076816    1.978067
N       1.286654    0.007890    0.790367
H       0.393250    2.311740   -0.459198
H      -1.245895    1.730887   -0.824527
H      -0.765995    2.034543    0.850231
H      -0.769893   -0.408791    0.381740
H       0.336594   -1.427897   -1.470286
H       1.576606    1.279828   -2.242958
H       1.734165   -0.231044   -3.140330
H       0.150562    0.542461   -3.003344
H       3.885732   -1.729092   -0.197646
H       3.911396   -0.980485    2.401551
H       1.612264    0.377571    2.891370
