19

C       0.023357    1.572135    0.042048
C       0.025638    0.061209    0.034555
C       0.948052   -0.784125   -0.918962
C       0.599128   -1.923924    0.102636
C       0.659810   -0.795004    1.191860
C      -0.905164   -2.009011   -0.103218
C      -1.295641   -0.719940   -0.149902
C      -2.652419   -0.231839   -0.332661
O      -2.989085    0.933883   -0.372665
H       1.039884    1.954966    0.182491
H      -0.369798    1.972390   -0.896481
H      -0.607014    1.963373    0.845284
H       0.624164   -0.915233   -1.954390
H       1.998714   -0.480278   -0.875360
H       1.173574   -2.845557    0.176328
H       1.683276   -0.492191    1.434623
H       0.070351   -0.936129    2.101160
H      -1.507121   -2.904398   -0.190039
H      -3.404386   -1.047327   -0.439591
