16

N      -0.094378    1.341904   -0.198467
C      -0.046689   -0.035553   -0.089209
O       0.846090   -0.715259   -0.554891
N      -1.120288   -0.568320    0.638268
C      -2.544488   -0.395043    0.198816
C      -2.489007   -1.563968   -0.854756
N      -3.632340   -2.334384   -0.271130
C      -2.970443   -1.713951    0.920307
C      -1.550514   -1.961415    0.333589
H       0.777083    1.757468   -0.490147
H      -0.589882    1.847258    0.519622
H      -3.052448    0.569151    0.152770
H      -2.263280   -1.524540   -1.920248
H      -4.518280   -1.863020   -0.470855
H      -3.306611   -1.846064    1.948205
H      -0.902950   -2.827248    0.434069
