18

C       0.297024    0.925357   -0.271709
O      -0.414449    0.028618    0.568628
C       0.403544   -0.658907    1.442835
C       0.026938   -2.063702    1.804651
O      -0.859364   -2.711082    0.909344
C      -0.203345   -2.745552   -0.277738
N       0.992513   -2.316225   -0.333720
C       1.305505   -1.805294    0.983458
C       2.727515   -1.943938    1.454642
H       1.020167    0.388792   -0.897966
H      -0.442775    1.416151   -0.907826
H       0.825792    1.690269    0.315539
H       0.817827   -0.067570    2.262813
H      -0.063095   -2.418733    2.823606
H      -0.771142   -3.166619   -1.097739
H       3.406634   -1.418636    0.775560
H       2.851108   -1.521505    2.456413
H       3.029407   -2.995697    1.486957
