20

C      -0.341408    1.455837    0.203931
C       0.075500    0.012341   -0.036529
C      -1.075505   -1.026933    0.185071
C      -0.437732   -1.446992    1.537395
C       0.851350   -0.673530    1.149028
N       1.856914   -1.452845    0.467542
C       1.949211   -1.289662   -0.891928
O       2.709363   -1.883603   -1.623732
C       0.932394   -0.209838   -1.285371
H       0.530937    2.117313    0.249574
H      -0.991161    1.812496   -0.603079
H      -0.893488    1.563763    1.144270
H      -2.084602   -0.610545    0.232264
H      -1.068718   -1.827452   -0.558920
H      -0.936915   -0.998187    2.400257
H      -0.317438   -2.517028    1.720678
H       1.286842   -0.027598    1.919696
H       2.449255   -2.125254    0.930043
H       0.361220   -0.538217   -2.157742
H       1.486027    0.689376   -1.580213
