12

C      -0.041673    1.363518    0.059869
O       0.014257   -0.069325   -0.011222
C       0.629350   -0.558142   -1.101594
O       1.112974    0.112575   -1.980075
C       0.637061   -2.001647   -1.086464
C       0.689749   -3.209222   -1.156573
C       0.739788   -4.564739   -1.218958
C       0.785225   -5.769930   -1.276285
H       0.965810    1.786550    0.072085
H      -0.584711    1.769196   -0.797240
H      -0.564780    1.589238    0.988466
H       0.824274   -6.830387   -1.324950
