17

C      -0.038192    1.556924   -0.519703
C      -0.066149    0.117387   -0.073036
N       1.199743   -0.594766   -0.020851
C       0.486496   -0.359369    1.253406
C       1.115196    0.577621    2.217670
O       1.902626    1.456153    1.936491
C       0.669309    0.385706    3.689798
N       1.247362    1.286047    4.511875
O      -0.112191   -0.487630    4.020793
H       0.850878    2.061621   -0.140195
H      -0.023073    1.602911   -1.613908
H      -0.930302    2.088106   -0.171892
H      -0.942169   -0.445439   -0.395874
H       1.082693   -1.569927   -0.284682
H      -0.039657   -1.180583    1.725928
H       1.889281    1.955511    4.118530
H       1.055238    1.264950    5.498596
