17

C      -0.055379    1.506168   -0.377877
C       0.084751    0.076040    0.095221
O       1.152510   -0.416018    0.383855
C      -1.216342   -0.714933    0.198384
O      -1.047472   -2.144287    0.248811
C      -1.875311   -2.230063    1.419546
C      -1.211290   -1.551488    2.563529
O       0.148061   -1.544079    2.800017
C      -1.962183   -0.700945    1.542454
H       0.882765    2.041242   -0.229466
H      -0.316417    1.518279   -1.442759
H      -0.866827    2.013766    0.155568
H      -1.879072   -0.444691   -0.635150
H      -2.621101   -3.017155    1.441372
H      -1.765821   -1.628788    3.495758
H       0.612969   -1.579815    1.948328
H      -2.791499   -0.049439    1.784556
