16

C      -0.087879    1.408600   -0.066815
N      -0.015788   -0.027530    0.097975
C      -1.186747   -0.864877    0.064827
C      -1.422041   -1.612072   -1.213118
C      -0.715195   -2.291733   -0.032453
C       0.777645   -2.228411    0.007700
O       1.563138   -3.133105    0.079569
C       1.164270   -0.722530    0.004281
O       2.278205   -0.260170   -0.085131
H       0.935548    1.787339   -0.080031
H      -0.586334    1.676824   -1.006563
H      -0.635575    1.869476    0.762281
H      -2.005604   -0.572594    0.713003
H      -2.419184   -1.980483   -1.427918
H      -0.835557   -1.333954   -2.082322
H      -1.215615   -3.110722    0.466275
