15

C      -0.077264    1.465139   -0.119189
N       0.297892    0.070917    0.078533
C       0.709245   -0.697149   -0.968924
C       0.701687   -2.054342   -1.198954
N       1.343103   -2.286744   -2.424840
C       1.674187   -1.123881   -2.850146
O       1.319949   -0.088408   -2.013052
C       0.153006   -3.046053   -0.364399
C      -0.337510   -3.854868    0.383954
H       0.750080    2.002508   -0.586804
H      -0.970190    1.589168   -0.748368
H      -0.268710    1.914596    0.857078
H      -0.271087   -0.449211    0.731037
H       2.176376   -0.844474   -3.761446
H      -0.756581   -4.583394    1.032264
