19

C      -0.070833    1.523792   -0.046391
C      -0.003469    0.005532   -0.005523
C      -1.228202   -0.770146    0.522197
O      -0.439093   -1.445874    1.524227
C       0.733493   -0.658292    1.187103
C       1.955432   -1.443267    0.846556
C       2.469423   -1.384581   -0.379033
C       1.772354   -0.638371   -1.484462
O       0.376553   -0.522658   -1.268224
H       0.913663    1.954361   -0.259909
H      -0.759508    1.847498   -0.832778
H      -0.415238    1.930649    0.909035
H      -2.014441   -0.148981    0.970026
H      -1.664985   -1.462215   -0.204534
H       0.953182    0.050720    1.999496
H       2.424653   -2.019191    1.639163
H       3.399911   -1.886892   -0.629398
H       2.237709    0.351649   -1.637919
H       1.876889   -1.180284   -2.430511
