17

O       0.061534    0.011725   -0.021159
C       0.015135    1.202541   -0.058302
C      -1.081496    2.284884    0.031989
C      -0.056378    2.985609    0.987923
C       1.030024    2.368798    0.037004
C       0.704614    3.104303   -1.259366
C       1.547060    4.122286   -1.886983
O       1.434113    2.799818   -2.437475
C      -0.842404    3.058858   -1.286793
H      -2.104116    2.056970    0.323238
H      -0.098563    4.076628    1.023779
H      -0.035208    2.562752    1.993097
H       2.074099    2.236767    0.308656
H       1.088156    4.913483   -2.479359
H       2.518582    4.367244   -1.459044
H      -1.200119    2.527769   -2.172441
H      -1.298575    4.052820   -1.265104
