19

C      -0.070078    1.615983    0.507143
C       0.011172    0.144768    0.106801
C       1.162888   -0.214589   -0.888144
C       1.974544   -0.868427    0.272027
C       0.723733   -0.745612    1.143630
O       0.732569   -0.514761    2.531809
C       0.170017   -1.758321    2.072408
C      -1.305108   -1.886886    2.242001
O      -1.883140   -2.942276    2.305288
H       0.910587    2.003074    0.803927
H      -0.433338    2.221688   -0.329055
H      -0.748531    1.757196    1.353673
H      -0.975362   -0.213096   -0.201620
H       0.858547   -0.933111   -1.651591
H       1.637655    0.637604   -1.378568
H       2.362831   -1.875244    0.104633
H       2.786462   -0.237335    0.643629
H       0.751013   -2.654250    2.285968
H      -1.835597   -0.910891    2.303300
