20

C      -0.045938    1.601247   -0.052945
C      -0.025581    0.071860   -0.093107
C      -1.428371   -0.542661    0.092043
C      -1.441483   -2.037251    0.082451
C      -1.411716   -2.969533    1.097351
N      -1.413154   -4.219087    0.562770
N      -1.442996   -4.120650   -0.733959
N      -1.458303   -2.802370   -1.042273
C      -1.513311   -2.399496   -2.431698
H       0.958870    2.013444   -0.184187
H      -0.681119    2.012131   -0.845686
H      -0.433952    1.967144    0.904036
H       0.401093   -0.268092   -1.044856
H       0.634663   -0.317335    0.690364
H      -1.843101   -0.203707    1.047806
H      -2.099609   -0.154052   -0.684950
H      -1.396171   -2.806934    2.163587
H      -2.387334   -1.769027   -2.619320
H      -0.610545   -1.853994   -2.721232
H      -1.590814   -3.310467   -3.024815
