17

C       0.038201    1.565394    0.045023
C      -0.018316    0.037947   -0.019086
C       0.709942   -0.530463   -1.233759
O       2.117937   -0.240505   -1.187459
C       2.850285   -1.380697   -1.238582
N       4.109982   -1.355865   -1.213367
N       1.953468   -2.453914   -1.317074
C       0.635052   -2.054072   -1.314557
O      -0.346415   -2.751346   -1.354926
H       1.073143    1.915506    0.085865
H      -0.436490    2.015566   -0.833643
H      -0.482298    1.934698    0.932942
H       0.420228   -0.399074    0.885833
H      -1.053412   -0.316699   -0.075223
H       0.304109   -0.098046   -2.157307
H       4.506649   -2.290679   -1.259255
H       2.240228   -3.418970   -1.351460
