21

C       0.017794    1.601044    0.075456
C       0.007089    0.072026    0.011803
C       0.701588   -0.482826   -1.233814
O       2.076481   -0.109101   -1.293088
C       0.555576   -2.015772   -1.350488
O      -0.808270   -2.419696   -1.308839
C       1.261223   -2.565343   -2.595888
C       1.198648   -4.073785   -2.652538
O       0.805606   -4.711955   -3.594010
H       1.038772    1.988822    0.018322
H      -0.545863    2.032930   -0.758787
H      -0.434544    1.960111    1.004424
H       0.506969   -0.345841    0.899614
H      -1.016507   -0.313213    0.034267
H       0.251696   -0.030739   -2.129968
H       2.470551   -0.308166   -0.435900
H       1.005822   -2.468132   -0.454431
H      -1.211073   -2.203511   -2.157750
H       0.817373   -2.157895   -3.512184
H       2.311413   -2.250004   -2.564116
H       1.560281   -4.580471   -1.726805
