18

C       0.004675    1.514579   -0.010893
C       0.046825    0.007071   -0.042867
C       0.464638   -0.717519   -1.322016
C       0.355631   -2.206216   -0.874700
C      -0.101615   -2.018349    0.566008
C       0.608725   -0.783932    1.189215
O      -0.582086   -0.459315    1.987844
C      -1.087924   -0.820036    0.655464
H       0.990004    1.942265   -0.228403
H      -0.694679    1.906392   -0.758212
H      -0.313313    1.858105    0.976960
H      -0.200793   -0.478642   -2.158458
H       1.479123   -0.442860   -1.630033
H      -0.369867   -2.771798   -1.467426
H       1.311060   -2.735963   -0.938587
H      -0.284968   -2.879608    1.207093
H       1.583331   -0.710983    1.675832
H      -2.167571   -0.790797    0.495835
