17

O      -0.100526    1.444353    0.653867
C       0.006929    0.114230    0.235296
C      -0.636332   -0.970674    1.064091
C      -1.254691   -0.540871   -0.247591
C      -2.566442    0.252282   -0.242154
C      -2.783004    0.913148   -1.535017
C      -2.940665    1.445945   -2.599425
C      -3.705584   -0.601240    0.117582
C      -4.623381   -1.311907    0.425771
H       0.447487    1.556532    1.437320
H       0.927144   -0.121446   -0.298296
H      -0.166077   -1.945756    1.124711
H      -1.142077   -0.652083    1.970119
H      -1.162337   -1.223415   -1.085293
H      -2.462429    1.035634    0.519884
H      -3.087319    1.924297   -3.535916
H      -5.442668   -1.932449    0.692335
