17

N      -0.086301    1.532962   -0.035655
C      -0.054121    0.095844   -0.003641
C       0.383471   -0.667143    1.289866
O       0.159571    0.142141    2.417373
C      -0.802753   -1.655543    1.079929
O      -1.511396   -1.992087    2.243821
C      -1.444545   -0.642912    0.058880
C      -2.519407    0.112719    0.671822
N      -3.386243    0.634530    1.234524
H      -0.318919    1.878916    0.892088
H       0.829700    1.902795   -0.267616
H       0.491254   -0.277723   -0.874080
H       1.392981   -1.097865    1.298662
H      -0.314928   -0.411230    3.054650
H      -0.500259   -2.575909    0.573043
H      -2.299629   -1.435658    2.308880
H      -1.796987   -1.069505   -0.882437
