17

C      -0.037558    1.502019    0.250031
N       1.448954    1.509378   -0.030986
C       1.228067    0.337920   -0.864992
C       0.011542   -0.032431   -0.065445
N      -0.745835   -0.848452   -1.023043
C       0.288434   -1.067473   -2.031866
C       0.835253    0.307677   -2.407818
O       2.146159   -0.226349   -2.776570
C       1.845007   -0.912731   -1.526034
H      -0.299091    1.809968    1.265126
H      -0.630172    2.061876   -0.483452
H       1.805309    2.328105   -0.514096
H       0.255281   -0.576192    0.853218
H      -1.088322   -1.707848   -0.609459
H       0.079841   -1.800431   -2.809096
H       0.389904    1.074805   -3.041523
H       2.557758   -1.652267   -1.160056
