18

C       0.000107    1.458133    0.295428
C       0.022409   -0.021506    0.050413
C      -0.849207   -0.973173    0.785321
C       0.644613   -1.137042    0.980523
C       1.270857   -1.812549   -0.241731
C       0.654879   -0.714527   -1.166771
C       1.278800   -0.875630    2.273699
O       0.771514   -0.245092    3.177970
H       0.938610    1.929984   -0.014830
H      -0.813629    1.932988   -0.266303
H      -0.153268    1.669349    1.357788
H      -1.357975   -0.568751    1.654015
H      -1.383984   -1.761132    0.258734
H       2.363519   -1.782295   -0.231107
H       0.953683   -2.843765   -0.427515
H      -0.050940   -1.056330   -1.930905
H       1.418883   -0.101311   -1.650096
H       2.315400   -1.274253    2.369534
