17

N      -0.145195    1.235326   -0.362545
C      -0.060768   -0.004193   -0.129135
C      -1.211260   -0.895835    0.185260
C      -1.397039   -2.072678   -0.754676
C      -0.653193   -2.259257    0.533211
C       0.861264   -2.158141    0.470382
N       1.109752   -0.827957   -0.107570
C       2.364936   -0.424082   -0.478061
O       2.665652    0.681656   -0.873564
H       0.777051    1.630010   -0.548868
H      -2.069978   -0.451952    0.669036
H      -2.397050   -2.485914   -0.816614
H      -0.846606   -2.078448   -1.690341
H      -1.085022   -2.863205    1.320794
H       1.293428   -2.226810    1.476233
H       1.316819   -2.938075   -0.149865
H       3.105535   -1.241869   -0.377526
