22

C      -1.483776   -0.196850   -0.200444
C       0.032220   -0.211831    0.033694
C       0.852072   -0.729685   -1.143970
C       2.186727   -1.360787   -0.829237
C       1.020304   -2.227778   -1.241847
C       0.717478    0.099518   -2.435142
C       1.222033    1.551119   -2.276452
C       1.404494   -0.529366   -3.568736
N       1.952512   -1.011203   -4.465480
H      -1.773791    0.513672   -0.981534
H      -1.847038   -1.185931   -0.498110
H      -2.012088    0.095050    0.712106
H       0.371334    0.792021    0.317687
H       0.252450   -0.852083    0.895596
H       2.994173   -1.244937   -1.544311
H       2.507272   -1.378547    0.206945
H       0.535879   -2.833853   -0.483565
H       1.063305   -2.688565   -2.222020
H      -0.344700    0.132709   -2.710525
H       2.268335    1.560861   -1.960047
H       1.141823    2.093485   -3.221548
H       0.628581    2.081136   -1.528288
