17

O      -0.073246   -0.056378    0.294634
C      -0.045741    1.126495    0.057931
C      -1.325960    1.962230    0.002013
O      -1.304620    2.983104   -0.978788
C      -0.177082    3.825614   -0.885376
C       1.129668    3.048979   -1.151231
C       1.250294    1.907572   -0.108391
C       1.174872    2.532172   -2.516357
C       1.215794    2.095516   -3.635009
H      -2.169411    1.306957   -0.221924
H      -1.481429    2.392839    1.009677
H      -0.317103    4.610806   -1.631465
H      -0.118253    4.295268    0.111841
H       1.969268    3.742092   -1.009007
H       1.467406    2.358746    0.870498
H       2.060099    1.214413   -0.342181
H       1.248681    1.712869   -4.625158
