17

C       0.068699    1.478787    0.172902
C      -0.105161   -0.028388    0.199445
O       0.877381   -0.572297    1.080328
C       0.865430   -1.976300    1.205714
C       2.084052   -2.332020    2.071029
O       2.028871   -1.701051    3.324203
C      -0.393947   -2.457334    1.818336
N      -1.389635   -2.831413    2.269320
H       1.068875    1.748252   -0.177725
H      -0.667804    1.928594   -0.498939
H      -0.073329    1.899770    1.172085
H      -1.110477   -0.302061    0.548302
H       0.029004   -0.458756   -0.805159
H       0.961782   -2.461317    0.220415
H       2.113086   -3.411235    2.245216
H       2.979011   -2.045967    1.497575
H       1.879666   -0.763345    3.153578
