21

C       0.063025    1.565927   -0.031837
C       0.000493    0.036951    0.018655
O      -1.376962   -0.383360    0.027049
C       0.664984   -0.651758   -1.204115
C       1.501911   -1.805302   -0.636070
C       1.440825   -3.214711   -1.192162
C       2.681652   -2.386151   -1.384220
C       1.540490   -1.571072    0.828335
C       0.751995   -0.561612    1.194394
H       1.098003    1.919984   -0.069718
H      -0.470488    1.938219   -0.911849
H      -0.406692    2.002049    0.858281
H      -1.769292   -0.083837    0.854493
H      -0.108537   -0.984596   -1.899698
H       1.308422    0.060746   -1.729918
H       1.476052   -4.042691   -0.491778
H       0.797133   -3.383475   -2.049075
H       2.886360   -1.992666   -2.375009
H       3.569863   -2.648024   -0.818047
H       2.140575   -2.181962    1.495684
H       0.603099   -0.208966    2.210278
