16

C      -0.023729    1.537565   -0.127763
C       0.008484    0.041865    0.057539
O       1.282915   -0.611041    0.010712
C       0.548120   -0.657671    1.235353
C       1.157896    0.055269    2.418521
C       2.056469   -0.844774    3.243771
O       2.196151   -2.029268    3.086191
C       2.777210   -0.147666    4.334432
N       3.329485    0.412442    5.181931
H       0.759452    2.043178    0.440796
H       0.117101    1.785369   -1.184650
H      -0.995183    1.937929    0.181768
H      -0.767286   -0.491978   -0.495445
H       0.143814   -1.641094    1.473043
H       1.741335    0.926884    2.105225
H       0.380498    0.437901    3.096881
