18

C       1.058871    1.137283   -0.253031
C      -0.068206    0.146047    0.111644
N      -0.404033   -0.681633   -1.026958
C       0.014795   -1.818762   -1.367614
O       0.886746   -2.707946   -0.826712
C       1.590273   -2.386872    0.372711
C       0.674995   -1.965942    1.519671
C       0.244296   -0.507553    1.470734
O       0.151796    0.150784    2.479858
H       2.004281    0.618987   -0.441628
H       0.783983    1.677589   -1.162071
H       1.201557    1.849238    0.563009
H      -0.955403    0.757547    0.316975
H      -0.368090   -2.264066   -2.286695
H       2.116699   -3.307989    0.631750
H       2.346719   -1.619409    0.164440
H      -0.220395   -2.601452    1.502795
H       1.165827   -2.125141    2.483781
