21

C       0.018905    1.428421    0.240800
O      -0.107573    0.048923    0.515582
C      -1.310313   -0.561395    0.088219
C      -2.531714   -0.029872    0.833877
C      -1.520855   -0.683967   -1.453919
C      -1.786529   -2.199387   -1.264059
C      -1.192310   -2.119946    0.180531
C       0.231416   -2.614350    0.242940
O       0.649190   -3.372039    1.080502
H       1.044496    1.706323    0.494647
H      -0.152883    1.653471   -0.822016
H      -0.666529    2.041502    0.841510
H      -2.728363    1.017729    0.585404
H      -3.425219   -0.602482    0.567466
H      -2.378672   -0.111355    1.914328
H      -2.317012   -0.084572   -1.901834
H      -0.588097   -0.495724   -1.991971
H      -2.847889   -2.454183   -1.251600
H      -1.279109   -2.876054   -1.955618
H      -1.759120   -2.593164    0.984467
H       0.888736   -2.249190   -0.577297
