17

C       0.126206    1.346453    0.208473
O      -0.163411   -0.010234   -0.110884
C       0.560480   -0.491381   -1.161413
C       0.929105   -1.861281   -1.548601
O       0.486355   -1.776691   -2.872053
C       0.338017   -0.293072   -2.717488
C       1.609374    0.294240   -3.244528
C       2.602570   -0.043220   -2.401604
C       2.051176   -0.747317   -1.228762
H       1.189145    1.480183    0.445859
H      -0.136475    2.017371   -0.620249
H      -0.477907    1.600208    1.081413
H       0.938663   -2.826174   -1.058277
H      -0.624675    0.033223   -3.106259
H       1.710630    0.755038   -4.217827
H       3.662429    0.099265   -2.574884
H       2.604943   -0.922112   -0.314095
