15

O       0.025715    0.131044   -0.533401
C      -0.004233    1.239489   -0.104836
C      -1.109233    2.165183    0.425509
C      -0.029733    3.229944    0.690593
C      -0.156322    4.699079    0.604328
N       0.132658    4.029514    1.887454
C       1.104854    2.328981    0.125898
C       2.195083    1.968977    1.009331
N       3.052135    1.662514    1.721690
H      -1.878198    2.414320   -0.311993
H      -1.599346    1.764126    1.319703
H       0.660615    5.297716    0.210535
H      -1.147924    5.112134    0.435206
H      -0.698112    3.982989    2.472135
H       1.500437    2.682724   -0.833060
