15

O      -0.074841   -0.057131   -0.047366
C      -0.031640    1.145722    0.007481
C      -1.188412    2.096845    0.042428
C      -0.783988    3.343719    0.381702
C       0.652950    3.347570    0.587633
C       1.588441    3.921760    1.343654
C       2.800557    3.008499    1.349515
O       2.354598    1.771544    0.770501
C       1.205801    2.070800    0.012341
H      -2.209703    1.770236   -0.109019
H      -1.435039    4.195493    0.541262
H       1.511204    4.815770    1.948153
H       3.645174    3.423399    0.773346
H       3.162842    2.803266    2.364256
H       1.462362    2.210025   -1.056866
