16

O       0.109453    1.292329   -0.304467
C       0.110261   -0.053983    0.093304
C      -0.018304   -0.374453    1.600088
O      -1.220501   -1.137962    1.354919
C      -1.269536   -0.729601   -0.018086
C      -2.500473    0.038415   -0.532857
O      -2.685191   -0.915040   -1.603455
C      -1.646152   -1.767583   -1.084376
H       1.014666    1.617348   -0.307540
H       0.901852   -0.626722   -0.406780
H       0.767573   -0.983107    2.060638
H      -0.210390    0.516119    2.210957
H      -3.332442    0.032867    0.182715
H      -2.321709    1.052184   -0.902811
H      -0.883366   -2.003610   -1.837203
H      -2.038143   -2.698034   -0.652775
