16

C       0.118088    1.585446   -0.023003
C      -0.034782    0.055693    0.032390
C       0.659553   -0.624423   -1.129387
C       1.783214   -1.272651   -0.787173
C       1.991402   -1.126454    0.664661
O       2.985900   -1.317051    1.330797
C       0.679247   -0.585001    1.249165
O       0.906185    0.266259    2.339064
H       1.172994    1.873301   -0.022683
H      -0.348031    1.986944   -0.928158
H      -0.354404    2.042190    0.848874
H      -1.104734   -0.183233    0.026350
H       0.277346   -0.539556   -2.142184
H       2.478963   -1.773773   -1.447528
H       0.094421   -1.469311    1.560315
H       1.780587    0.021531    2.677897
