15

C       0.001921    1.378087    0.074408
N      -0.133009   -0.056180   -0.017025
C      -0.110646   -0.811395   -1.174395
C       0.020894   -2.101543   -0.740523
O       0.013541   -3.410169   -1.143428
C       0.345295   -4.122357    0.068494
O       0.122127   -3.263095    1.203591
C       0.080666   -2.020804    0.644882
N       0.005997   -0.804535    1.126909
H       1.051958    1.693544    0.114599
H      -0.474448    1.838625   -0.794630
H      -0.501853    1.717144    0.981266
H      -0.201206   -0.354920   -2.145288
H      -0.297775   -5.000612    0.153161
H       1.407424   -4.403873    0.037950
