16

C       0.285319    1.536652    0.096642
C      -0.315507    0.172950   -0.266388
C       0.469717   -0.509616   -1.356497
O       1.720561   -1.094801   -0.999323
C       0.675900   -1.978305   -1.432128
C       0.130050   -2.877938   -0.456078
C      -0.335365   -3.664463    0.335279
C      -0.862695   -4.545571    1.234032
N      -1.314650   -5.294507    1.998691
H       1.314453    1.423035    0.449488
H       0.297029    2.209983   -0.767162
H      -0.295447    2.017881    0.888067
H      -0.344875   -0.475263    0.614747
H      -1.350034    0.294175   -0.611412
H       0.493839    0.012438   -2.316039
H       0.839641   -2.423970   -2.413118
