17

C       0.085495    1.558937    0.184113
C      -0.045954    0.039850    0.097779
C      -1.450340   -0.468440   -0.079515
N      -2.439033    0.368131   -0.147389
N      -3.667727   -0.152482   -0.305992
C      -3.985930   -1.497825   -0.404620
N      -5.205291   -1.862008   -0.554531
C      -2.775873   -2.321991   -0.311784
N      -1.587855   -1.852785   -0.160164
H       1.134525    1.840145    0.311851
H      -0.293056    2.040941   -0.721162
H      -0.483795    1.958082    1.027761
H       0.556339   -0.354254   -0.731402
H       0.367885   -0.436156    0.996543
H      -4.421659    0.518044   -0.356197
H      -5.268351   -2.877039   -0.609383
H      -2.905472   -3.403172   -0.377305
