22

C      -0.077497    1.481739   -0.072010
C      -0.006072   -0.023895    0.171310
N      -1.300938   -0.657883    0.017142
C      -1.889064   -0.774903   -1.336265
C      -2.479301   -2.143243   -0.904136
O      -3.802985   -2.050603   -0.396590
C      -2.499036   -3.297753   -1.885988
O      -2.878940   -4.499923   -1.244777
C      -1.397374   -2.120569    0.208075
H       0.904764    1.942483    0.068747
H      -0.404487    1.702299   -1.093754
H      -0.785339    1.950506    0.617784
H       0.744333   -0.476768   -0.508099
H       0.339973   -0.219104    1.194051
H      -2.604141    0.005853   -1.613703
H      -1.133425   -0.879850   -2.133926
H      -3.798743   -1.393701    0.308645
H      -3.179770   -3.046917   -2.716285
H      -1.500468   -3.455548   -2.303996
H      -3.678754   -4.286551   -0.748859
H      -0.487312   -2.665417   -0.091545
H      -1.695993   -2.445320    1.210606
