18

C      -0.082691    1.586363   -0.000685
C       1.416529    1.223112    0.033193
C       1.215844    0.028617    0.997645
C       1.856225   -0.935296    0.004670
C       1.195974   -2.310027   -0.085255
O      -0.172545   -2.260436   -0.480651
C      -0.930482   -1.117190   -0.094080
C      -0.009391    0.057749    0.030791
N       1.196160    0.053749   -0.959262
H      -0.491573    2.082147    0.883341
H      -0.450754    2.034730   -0.927586
H       2.287511    1.873364   -0.063959
H       1.203577    0.026649    2.093517
H       2.948230   -0.992013   -0.064196
H       1.689115   -2.924910   -0.845289
H       1.305486   -2.825036    0.884760
H      -1.678796   -0.967657   -0.880132
H      -1.461017   -1.292722    0.856232
