12

O       0.084723    1.339718    0.095445
C       0.069055   -0.007494    0.054252
N       0.083878   -0.587562   -1.139075
C       0.068427   -1.925539   -1.186247
C       0.038029   -2.714369   -0.053881
F       0.023204   -4.044876   -0.130339
C       0.022829   -2.083772    1.193713
F      -0.006358   -2.821798    2.294112
C       0.038276   -0.707126    1.266757
H       0.105225    1.634777   -0.825431
H       0.080646   -2.396317   -2.164944
H       0.027067   -0.193853    2.218864
