23

C       0.015226    1.534185    0.211262
C      -0.122899    0.010364    0.231654
C      -1.442147   -0.482338   -0.374610
O      -1.604740   -0.072268   -1.731355
C      -1.556036   -1.992288   -0.280143
O      -1.708852   -2.566787    1.021422
C      -2.771216   -2.754025    0.060705
C      -4.082534   -2.079802    0.397859
C      -2.901361   -4.174655   -0.448095
H       0.987624    1.848562    0.601595
H      -0.088970    1.919616   -0.806644
H      -0.759901    2.006588    0.824665
H       0.709884   -0.450867   -0.321000
H      -0.057609   -0.371726    1.256753
H      -2.272873   -0.013693    0.161498
H      -0.840172   -0.388631   -2.226189
H      -0.816439   -2.508381   -0.903822
H      -3.933206   -1.099231    0.851434
H      -4.695856   -1.958869   -0.501258
H      -4.646434   -2.694648    1.107903
H      -3.407559   -4.801875    0.293857
H      -3.491985   -4.203640   -1.370124
H      -1.919152   -4.609468   -0.649062
