19

C      -0.082511    1.213072   -0.609764
O      -0.118693    0.237590    0.415059
C      -1.281325   -0.527336    0.396468
C      -1.375989   -1.709870   -0.532635
C      -1.189042   -1.916525    0.959854
C       0.131074   -2.421693    1.477032
O       0.259325   -3.837087    1.249491
C       0.162509   -4.659044    2.307280
O       0.225694   -5.848437    2.214877
H       0.859440    1.755317   -0.502954
H      -0.126652    0.754284   -1.607374
H      -0.916622    1.924268   -0.516841
H      -2.191721    0.040164    0.596435
H      -2.331353   -1.961187   -0.978746
H      -0.512876   -1.909862   -1.158726
H      -2.054484   -2.264869    1.516626
H       0.959351   -1.941517    0.954608
H       0.239621   -2.211676    2.548785
H       0.026148   -4.114464    3.263602
