21

C       0.239891    1.527147   -0.169139
C      -0.016198    0.041085    0.083827
O       0.439456   -0.721124   -1.041132
C       1.318940   -1.736693   -0.602965
C       1.238824   -3.081316   -1.283434
C       2.416438   -2.160065   -1.541878
C       1.476623   -1.553869    0.853922
C       0.717992   -0.542804    1.274877
C       0.535946   -0.020111    2.662583
H       1.313638    1.724012   -0.242759
H      -0.234305    1.831858   -1.106143
H      -0.177305    2.137788    0.638539
H      -1.104616   -0.111360    0.196001
H       1.393288   -3.977184   -0.690963
H       0.499382   -3.175212   -2.070945
H       2.449023   -1.651699   -2.499160
H       3.385710   -2.418168   -1.128103
H       2.115914   -2.181531    1.462601
H       1.109837   -0.603544    3.387123
H       0.853266    1.026721    2.744039
H      -0.519836   -0.050590    2.961480
