20

C      -0.288680    1.523564    0.118962
C      -0.010317    0.043372    0.009655
C      -1.222212   -0.929719    0.040239
C      -0.568895   -1.753641    1.186553
C       0.671572   -0.810497    1.179394
C       1.795298   -1.235184    0.186807
C       1.122243   -0.415607   -0.951173
C       1.076831   -0.233657    2.436984
N       1.394047    0.253020    3.438643
H       0.632685    2.094195    0.276015
H      -0.758620    1.891575   -0.801431
H      -0.964917    1.743858    0.951653
H      -2.153366   -0.443357    0.341220
H      -1.405203   -1.468630   -0.893153
H      -1.127336   -1.716087    2.123059
H      -0.334503   -2.797874    0.965791
H       2.779304   -0.859351    0.471047
H       1.868750   -2.314715    0.034115
H       0.786771   -0.987972   -1.820074
H       1.742581    0.410980   -1.306306
