13

C      -0.035759    1.482208    0.010394
C       0.001656    0.028424    0.002676
C       0.037510   -1.177049   -0.003745
C       0.054251   -2.588413   -0.011109
C       1.121607   -3.442955   -0.021876
O       0.712054   -4.714804   -0.025937
N      -0.681647   -4.746111   -0.017802
C      -1.055814   -3.494867   -0.009195
H       0.976067    1.901632    0.002566
H      -0.564005    1.871150   -0.867240
H      -0.546632    1.862243    0.902106
H       2.187793   -3.281345   -0.027398
H      -2.108468   -3.251847   -0.001691
