16

C      -0.167848    1.584206   -0.013422
C       0.007878    0.062515    0.008218
C      -1.294160   -0.571737   -0.209639
N      -2.335421   -1.044975   -0.383698
C       1.205337   -0.664882   -0.723427
C       2.168284   -0.126268    0.363719
C       0.908007   -0.673578    1.078847
N       1.038535   -1.878969    0.168880
H       0.773126    2.111573    0.144170
H      -0.581259    1.904035   -0.974566
H      -0.868282    1.895659    0.767212
H       1.360305   -0.750704   -1.799619
H       3.059048   -0.735489    0.507732
H       2.377354    0.940012    0.403359
H       0.709221   -0.769745    2.146932
H       0.119901   -2.305969    0.015268
