19

C       0.352427    1.413066    0.029493
C      -0.012929   -0.079392    0.010204
C      -1.519546   -0.280240    0.177308
C       0.561939   -0.789006   -1.262668
N       1.830078   -1.419800   -0.863580
C       1.838602   -1.370856    0.420562
N       0.747418   -0.814584    1.046551
C       2.978582   -1.893525    1.215576
O       3.046855   -1.778680    2.416198
H       1.428227    1.553084   -0.114874
H      -0.170981    1.947773   -0.770026
H       0.069356    1.875188    0.981820
H      -2.062589    0.173336   -0.658566
H      -1.764417   -1.344876    0.214654
H      -1.881553    0.185775    1.100159
H      -0.121270   -1.571618   -1.620151
H       0.720954   -0.094876   -2.094065
H       0.887845   -0.411422    1.962705
H       3.764966   -2.376462    0.605065
