15

C       0.001088   -1.217760    0.095776
C       0.013793   -0.014893    0.092648
C       0.022573    1.419480    0.077899
C       0.530676    2.246493    1.203623
C       1.663168    1.523467    1.950261
C       2.384179    1.487881    0.561064
N       1.263509    2.230382   -0.111886
C       2.334707    2.312468    2.967474
N       2.870606    2.941308    3.776042
H      -0.020776   -2.280038    0.093374
H      -0.798435    1.869828   -0.474262
H       0.001362    3.119041    1.571176
H       1.382323    0.552119    2.367068
H       3.287098    2.096873    0.533958
H       2.580658    0.496069    0.149596
