22

C      -0.000291    1.511737   -0.023182
C       0.008048   -0.006701   -0.005754
O       0.669257   -0.467211   -1.171104
C       0.735699   -1.868622   -1.260198
C       1.477463   -2.234618   -2.568035
C       0.701973   -1.698368   -3.791419
C       2.915648   -1.671941   -2.543287
C       1.533457   -3.703268   -2.636263
N       1.574182   -4.857521   -2.684092
H       1.021318    1.901752   -0.039460
H      -0.524141    1.883362   -0.908355
H      -0.505261    1.898342    0.866814
H       0.524180   -0.383445    0.892626
H      -1.020724   -0.401911    0.023377
H       1.274264   -2.292453   -0.397158
H      -0.273886   -2.310401   -1.270151
H       0.613185   -0.613588   -3.709334
H       1.224177   -1.945905   -4.718944
H      -0.302501   -2.128137   -3.838198
H       3.483222   -2.083036   -1.703812
H       3.443452   -1.919281   -3.467689
H       2.871683   -0.586636   -2.435784
