18

C       0.298587    1.534975   -0.118424
C      -0.072437    0.059810    0.112645
C       0.532395   -0.508184    1.342874
C       0.043483   -1.015485    2.470981
O       1.086269   -1.394657    3.300731
C       2.250853   -1.091816    2.628598
O       1.918489   -0.545581    1.417644
N       3.432914   -1.259281    2.998352
C       3.701048   -1.845318    4.298466
H       1.382774    1.655103   -0.186035
H      -0.146007    1.898672   -1.048863
H      -0.061385    2.161278    0.703088
H      -1.158649   -0.055423    0.187495
H       0.250831   -0.536368   -0.750373
H      -0.956420   -1.177469    2.832184
H       4.313684   -2.745098    4.170791
H       4.290896   -1.142615    4.898321
H       2.803152   -2.115915    4.867196
