18

C       0.014632    1.437800    0.147792
C       1.462221    1.903001   -0.142818
C       2.236898    0.605915   -0.050625
C       3.593487    0.355148    0.048420
C       4.045513   -0.969651    0.080460
C       3.131940   -2.018322    0.004811
C       1.759975   -1.777781   -0.103568
C       1.323549   -0.456953   -0.130383
N       0.017390    0.025084   -0.273217
H      -0.203395    1.535822    1.222655
H      -0.736518    2.008820   -0.404469
H       1.533898    2.324550   -1.154173
H       1.797751    2.674284    0.555365
H       4.302116    1.175862    0.110546
H       5.106009   -1.178289    0.167694
H       3.487553   -3.043444    0.034228
H       1.055185   -2.601105   -0.160313
H      -0.716819   -0.549695    0.115735
