18

C      -0.016843    1.506183   -0.135950
C       0.029957    0.006667    0.038948
O      -1.109576   -0.671713   -0.428171
C       1.352687   -0.741964   -0.045054
C       0.622606   -0.596528    1.278854
O       1.125167    0.309126    2.215356
C      -0.052413   -1.814712    1.902232
C       0.913702   -2.599965    2.670495
N       1.712212   -3.177540    3.274691
H       0.833699    1.984779    0.351040
H      -0.001646    1.766969   -1.200851
H      -0.936889    1.906159    0.300751
H      -1.117501   -0.609014   -1.389736
H       1.348452   -1.714920   -0.524587
H       2.259772   -0.160988   -0.171447
H       1.899704   -0.090528    2.630195
H      -0.851169   -1.482636    2.574575
H      -0.510930   -2.434387    1.129102
