16

C       0.049436    1.439771   -0.043606
O       0.713245    0.185708    0.171584
C       0.879910   -0.577819   -0.905976
C       0.660035   -1.894529   -1.140378
C       0.036537   -2.951519   -0.289586
O      -1.067600   -3.569350   -0.934322
N       1.112708   -2.185521   -2.430344
C       1.555312   -1.065438   -2.888541
O       1.464357   -0.024890   -2.019468
H       0.635520    2.082348   -0.706696
H      -0.946681    1.278505   -0.470219
H      -0.038367    1.904598    0.938572
H       0.795661   -3.701062   -0.013779
H      -0.337903   -2.506283    0.636611
H      -0.762790   -3.816223   -1.815231
H       1.972868   -0.848500   -3.858928
