19

C       0.602610    0.705008   -0.555845
O       0.011235   -0.567174   -0.360283
C      -1.392927   -0.546385   -0.138502
C      -1.999491   -1.877069   -0.643632
C      -2.138541   -2.784987    0.602461
C      -2.097412   -1.805592    1.740353
C      -1.724911   -0.576596    1.350866
C      -1.627865    0.561789    2.265364
O      -1.273145    1.679905    1.956762
H       1.669663    0.533044   -0.718961
H       0.186452    1.204637   -1.444670
H       0.462548    1.365300    0.306833
H      -1.828720    0.326246   -0.642007
H      -2.988796   -1.687135   -1.069918
H      -1.369725   -2.302964   -1.426202
H      -3.060062   -3.377702    0.598421
H      -1.313629   -3.504648    0.693606
H      -2.328099   -2.079273    2.766038
H      -1.930677    0.331685    3.311741
