19

C      -0.001645    1.465086    0.032247
C       0.010443   -0.031584    0.098296
O       0.786564   -0.706627   -0.949835
C       0.817799   -1.800435   -0.026481
C      -0.676498   -2.166317    0.419896
C      -0.254590   -1.846433    1.878379
C       0.748358   -0.889853    1.211655
C      -1.311734   -0.826727   -0.027257
O      -2.316671   -0.293189    0.812537
H       1.004280    1.874063    0.160220
H      -0.390073    1.798588   -0.935940
H      -0.652142    1.862384    0.816497
H       1.543815   -2.584316   -0.236765
H      -1.169834   -3.097380    0.142495
H      -1.016861   -1.444093    2.545959
H       0.265546   -2.683549    2.352474
H       1.617534   -0.447807    1.696235
H      -1.632116   -0.837261   -1.076026
H      -3.085773   -0.869923    0.770537
