9

F       0.005921    0.044207    0.003110
C      -0.001102    1.362517    0.010547
C      -1.221170    2.048061    0.030395
N      -1.237848    3.372127    0.037735
N      -0.077398    4.034244    0.025720
C       1.042211    3.320230    0.006660
N       1.146422    1.981692   -0.001661
H      -2.173654    1.529709    0.040250
H       1.968527    3.886451   -0.002337
