18

C       0.412574    1.527110    0.103125
N       0.129922    0.099102   -0.023457
C      -0.230063   -0.624410    1.109724
N      -0.346142   -0.063673    2.245528
C       0.203355   -0.579065   -1.237425
O       0.052010   -1.779362   -1.342193
N       0.534001    0.256426   -2.320033
C      -0.504968    1.040380   -2.997495
C       0.115254   -0.152119   -3.645648
H       1.217971    1.799933   -0.577563
H      -0.471644    2.133102   -0.123079
H       0.700079    1.716211    1.136752
H      -0.383989   -1.678236    0.878243
H      -0.604122   -0.755066    2.946788
H      -1.525483    0.938948   -2.636682
H      -0.217341    2.045726   -3.290652
H       0.857182   -0.015031   -4.426089
H      -0.471228   -1.063545   -3.708780
