15

C       0.790954    1.191519   -0.605788
C       0.021652    0.087814    0.031913
N      -1.274460   -0.028246   -0.091931
O      -1.573053   -1.180234    0.652478
C      -0.411062   -1.625238    1.137965
C      -0.417262   -2.849078    2.004983
C      -0.977139   -4.024720    1.345090
C      -1.434292   -4.994331    0.805578
N       0.609173   -0.899287    0.800853
H       1.542278    0.783182   -1.288203
H       0.120643    1.849701   -1.160130
H       1.320358    1.772661    0.155103
H       0.618386   -3.029573    2.307136
H      -0.986419   -2.630310    2.918107
H      -1.841434   -5.850055    0.326099
