17

C       0.035817    1.543589   -0.101778
C       0.016737    0.047868    0.055134
O       1.311563   -0.630369   -0.033206
C       0.606327   -0.636381    1.189651
C       1.129676   -0.279565    2.592704
O      -0.119780   -0.858782    3.127173
C       0.289899   -1.836905    2.097588
C       1.745938   -1.720824    2.669630
O       2.867987   -2.097581    1.950363
H       0.845590    1.987128    0.482531
H       0.173723    1.819106   -1.152012
H      -0.914707    1.968175    0.237925
H      -0.765220   -0.476167   -0.495133
H       1.474459    0.666361    3.008710
H      -0.346244   -2.705811    1.933653
H       1.831924   -2.091342    3.692004
H       2.786826   -1.769133    1.046001
