15

O      -0.090793    1.188295    0.813307
C      -0.046331    0.007356    0.029119
C      -1.435991   -0.538869   -0.228705
C      -1.719756   -2.035320   -0.209262
C      -0.639862   -2.967657    0.025904
N       0.224839   -3.723281    0.157074
N      -2.184737   -1.154196    0.837705
C      -1.859057   -1.220472    2.193068
O      -1.810520   -2.241509    2.825694
H      -0.459263    1.899273    0.278644
H       0.464627    0.169561   -0.930700
H       0.543461   -0.715830    0.599303
H      -2.042844    0.047800   -0.919605
H      -2.492301   -2.423673   -0.868175
H      -1.724239   -0.210997    2.617294
