22

C       0.240066    1.545889   -0.014799
N       1.294465    0.537157   -0.157930
C      -0.105016    0.092933    0.023085
C      -0.445737   -0.653732    1.263771
C      -1.457801   -1.528759    1.259306
C      -1.881540   -2.352948    2.446679
C      -0.823346   -2.353350    3.558547
C      -0.271568   -0.940609    3.775408
C       0.392810   -0.407686    2.499003
H       0.281647    2.124933    0.903195
H      -0.076432    2.111844   -0.887686
H       1.567717    0.443565   -1.132016
H      -0.622012   -0.273864   -0.862348
H      -2.029522   -1.667490    0.342565
H      -2.836634   -1.968602    2.837212
H      -2.095062   -3.380332    2.124468
H      -1.247552   -2.753137    4.485878
H       0.000525   -3.020617    3.273820
H      -1.095121   -0.273469    4.062994
H       0.446406   -0.927499    4.602658
H       1.376693   -0.872780    2.353581
H       0.602154    0.663041    2.605808
