15

C       0.083015    1.366503   -0.137894
O       1.440187    1.820143    0.025026
C       2.011171    0.860332    0.841713
C       3.230333   -0.014102    0.997643
C       2.476855    0.555471    2.250538
C       1.532766   -0.701656    2.252460
C       2.287977   -1.268922    0.999561
C       1.108098   -0.342180    0.843551
O       0.025960   -0.063009    0.027905
H      -0.554897    1.846720    0.616618
H      -0.244528    1.610936   -1.150021
H       4.270134    0.131694    0.733746
H       2.895476    1.169883    3.037427
H       1.060576   -1.273429    3.041162
H       2.437457   -2.308658    0.737477
