18

N      -0.113888    1.458138    0.194885
C      -0.072737    0.023524    0.055897
C      -0.411048   -0.684634   -1.256545
C      -1.343691   -0.777770   -0.072186
C      -1.436495   -2.095549    0.690658
C      -0.418144   -2.119499    1.821492
O       0.911085   -1.784726    1.369554
C       1.091781   -0.570114    0.797654
O       2.167270   -0.033129    0.838841
H       0.838159    1.804796    0.104432
H      -0.659563    1.872972   -0.553792
H      -0.687107   -0.042172   -2.086666
H       0.143653   -1.574776   -1.538163
H      -2.253153   -0.187412   -0.128102
H      -2.435882   -2.224931    1.118608
H      -1.265378   -2.943840    0.018522
H      -0.702426   -1.414543    2.612078
H      -0.320207   -3.111683    2.267045
