20

C       1.045762   -0.100984    1.216704
C       0.730474   -1.470171    0.634340
O       1.258377   -2.486952    1.048411
N      -0.194844   -1.472704   -0.372325
C      -0.620002   -2.683875   -1.048601
C      -0.250540   -2.665647   -2.522020
C       1.223605   -2.676836   -2.852605
C      -1.237086   -3.142325   -3.500600
O      -1.045192   -1.740340   -3.291335
H       2.128634    0.044163    1.204684
H       0.565871    0.725612    0.686360
H       0.726358   -0.082616    2.262544
H      -0.576057   -0.600479   -0.700575
H      -0.130441   -3.513557   -0.532450
H      -1.705222   -2.802873   -0.951615
H       1.690974   -3.602963   -2.502895
H       1.374505   -2.588620   -3.930922
H       1.732803   -1.841548   -2.362849
H      -0.895493   -3.521546   -4.462751
H      -2.193772   -3.539724   -3.162755
