20

C       0.093438    1.557054    0.039466
C      -0.024528    0.029871   -0.000809
C      -1.465721   -0.514602   -0.040464
C      -2.206063   -0.084524   -1.315292
C      -1.454661   -2.046301    0.129354
C      -2.833274   -2.691861    0.304027
H       1.138713    1.864800    0.144625
H      -0.293431    2.024854   -0.870834
H      -0.461174    1.973900    0.888042
H       0.526557   -0.357244   -0.869580
H       0.477954   -0.384899    0.882591
H      -2.003277   -0.090252    0.822102
H      -1.708209   -0.484697   -2.207443
H      -3.239493   -0.442165   -1.323260
H      -2.241503    1.003939   -1.414979
H      -0.946157   -2.496855   -0.734792
H      -0.837646   -2.293150    1.003006
H      -2.739587   -3.765408    0.496589
H      -3.372249   -2.249792    1.149916
H      -3.459470   -2.574268   -0.585459
