25

C       0.045362    1.620657    0.077921
C       0.029282    0.089748    0.039519
C       0.469474   -0.468943   -1.319808
C       0.684582   -1.986829   -1.354206
C      -0.608797   -2.775195   -1.124167
C      -0.432826   -4.291313   -1.003088
C       1.589114   -2.453258   -2.528866
C       2.628216   -2.753997   -1.434556
O       1.715657   -2.370184   -0.387698
H       1.049606    2.010970   -0.121848
H      -0.628662    2.046341   -0.674367
H      -0.269188    1.997394    1.056283
H       0.699429   -0.310279    0.808610
H      -0.978196   -0.263637    0.287830
H      -0.256858   -0.196584   -2.098755
H       1.416826    0.009023   -1.601601
H      -1.078880   -2.405031   -0.206229
H      -1.300183   -2.534804   -1.943051
H       0.275546   -4.528953   -0.205271
H      -1.387593   -4.770249   -0.766175
H      -0.064901   -4.742958   -1.930111
H       1.231190   -3.324964   -3.077946
H       1.856515   -1.669772   -3.240283
H       2.938079   -3.801742   -1.341215
H       3.525311   -2.122118   -1.447711
