17

O       0.088443    1.430613   -0.132263
C       0.020495    0.039363   -0.006344
C       0.313356   -0.599331    1.398869
C      -1.089384   -1.267960    1.380035
O      -1.213377   -2.648788    1.529405
C      -2.270668   -0.423717    1.961004
O      -2.004204    0.959983    1.696162
C      -2.550082    0.148266    0.632772
C      -1.393074   -0.644192   -0.015960
H      -0.460925    1.790434    0.575835
H       0.667567   -0.371927   -0.784814
H       1.118535   -1.338331    1.382408
H       0.494790    0.124642    2.196318
H      -0.962033   -2.880061    2.431108
H      -2.920179   -0.652540    2.800142
H      -3.471354    0.503645    0.186530
H      -1.673154   -1.276962   -0.857324
