23

C       1.173617    0.957223   -0.667465
C       0.754069   -0.407716   -0.165320
C       1.779027   -1.474981    0.133187
C       0.967979   -0.873317    1.259831
C       1.611041   -0.011866    2.332218
C       0.564078    0.896174    3.006523
O       1.123227    1.897427    3.829463
C       2.319111   -0.912637    3.348556
O       2.977203   -0.096387    4.323136
H       2.122741    1.281684   -0.232064
H       1.303711    0.941044   -1.755226
H       0.423434    1.721054   -0.434848
H      -0.167469   -0.768046   -0.616139
H       1.585300   -2.498792   -0.168199
H       2.823953   -1.184820    0.066467
H       0.174913   -1.511120    1.647441
H       2.370431    0.640857    1.885699
H      -0.016710    1.411711    2.233804
H      -0.147123    0.259028    3.565817
H       1.799036    1.459258    4.363936
H       1.578010   -1.568081    3.833029
H       3.047390   -1.555432    2.834179
H       3.293515   -0.660167    5.034758
