14

N      -0.006572    1.303642   -0.251919
C       0.051861    0.015624    0.168793
O       1.017670   -0.512156    0.658085
C      -1.320793   -0.764688    0.045644
O      -0.956405   -2.125287   -0.086412
C      -2.079352   -0.519988    1.282384
C      -2.696899   -0.352481    2.299071
C      -2.107923   -0.309969   -1.114843
C      -2.746077    0.039584   -2.072176
H       0.841728    1.844956   -0.218665
H      -0.780579    1.636040   -0.801697
H      -1.761929   -2.647028    0.005604
H      -3.236615   -0.199097    3.201233
H      -3.314108    0.338235   -2.919179
