13

C       0.008518   -1.172382   -0.005142
C       0.024873    0.027606    0.002246
C       0.002597    1.478133    0.011658
O       1.363485    1.964073   -0.000803
C       1.485716    3.288664    0.006130
N       0.496889    4.143494    0.022802
O       1.101606    5.381783    0.023679
N       2.461619    5.273389    0.007460
C       2.722947    3.999355   -0.003537
H      -0.003731   -2.234655   -0.011708
H      -0.526035    1.875528   -0.863055
H      -0.505880    1.864376    0.903155
H       3.731866    3.620044   -0.017449
