13

C      -0.041240    1.407955    0.056649
O       0.022054   -0.028497   -0.035915
C       0.626636   -0.523141   -1.094359
N       1.147551    0.199810   -2.021260
C       1.753107   -0.467598   -3.078911
O       2.280587    0.084902   -4.016264
C       1.708080   -1.952421   -2.980627
N       1.175614   -2.625341   -2.033969
O       0.586361   -1.865926   -1.005919
H       0.964896    1.830192    0.081947
H      -0.582603    1.818688   -0.797429
H      -0.571470    1.605101    0.987187
H       2.160778   -2.544340   -3.770480
