16

O      -0.432760    1.329897    0.368648
C      -0.118360    0.039295    0.089139
C       0.265111   -0.614890   -1.064789
C       0.461877   -1.987109   -0.689613
C       0.208161   -2.104369    0.647970
N      -0.145374   -0.851046    1.119181
C       0.425701    0.000583   -2.389829
C       1.291663   -0.541268   -3.449119
O      -0.124906   -0.683760   -3.534640
H      -0.576375    1.799648   -0.458654
H       0.742897   -2.789977   -1.353191
H       0.239310   -2.953311    1.309901
H      -0.403448   -0.612933    2.060796
H       0.254660    1.080385   -2.422731
H       1.744747    0.130037   -4.179088
H       1.846978   -1.459059   -3.260031
