25

C       0.902419   -0.534681   -1.115872
C       0.050792    0.000718    0.043313
C       0.024944    1.534788    0.046300
C      -1.365466   -0.575125   -0.006869
C      -1.479122   -2.114035    0.123963
C      -2.753960   -2.322222    0.978261
C      -3.270035   -0.886572    1.223977
C      -3.899339   -0.639078    2.583424
O      -2.121415   -0.060022    1.084180
H       1.915876   -0.123726   -1.071215
H       0.984940   -1.625749   -1.098114
H       0.473158   -0.246884   -2.083243
H       0.494333   -0.338461    0.990184
H      -0.403226    1.919026   -0.887673
H      -0.578473    1.912959    0.873855
H       1.037890    1.940564    0.137710
H      -1.843185   -0.257669   -0.953030
H      -1.541952   -2.598902   -0.853152
H      -0.598955   -2.518170    0.633308
H      -3.504207   -2.942650    0.481214
H      -2.510937   -2.802275    1.931091
H      -3.994977   -0.626519    0.431860
H      -3.188017   -0.879300    3.380006
H      -4.194301    0.408688    2.689469
H      -4.790008   -1.262036    2.712021
