14

C       0.074004    1.544449    0.067866
C      -0.055371    0.022785   -0.043017
C       0.775804   -0.589626   -1.194480
O       1.999665   -1.018883   -0.588707
C       1.829078   -1.118165    0.766612
O       2.674518   -1.520121    1.514890
N       0.549818   -0.695820    1.068345
H       1.126460    1.842998    0.109555
H      -0.391692    2.033372   -0.794126
H      -0.423217    1.914317    0.970447
H      -1.110231   -0.251514   -0.149421
H       0.274092   -1.456999   -1.637394
H       1.009990    0.131636   -1.980612
H       0.370043   -0.438094    2.025735
