19

O      -0.363573    1.573651    0.268628
C      -0.463265    0.227438    0.674950
C      -1.220261   -0.592065   -0.373096
O      -0.608534   -0.381325   -1.660864
C      -1.346525   -2.053836   -0.073447
C      -0.877985   -2.757485    0.955661
C      -1.273888   -4.199638    0.817599
O      -1.955653   -4.283212   -0.429804
C      -2.097635   -2.985468   -0.996506
H      -0.153240    1.540980   -0.674078
H       0.533029   -0.222015    0.835327
H      -0.994312    0.208040    1.632257
H      -2.219320   -0.151564   -0.488194
H       0.212565   -0.888519   -1.671971
H      -0.309823   -2.384070    1.798131
H      -0.407446   -4.879008    0.811494
H      -1.932726   -4.527555    1.638972
H      -3.163373   -2.710024   -1.068868
H      -1.694754   -2.978523   -2.018955
