18

O       0.083643   -0.007626   -0.636921
C       0.000916    1.099583   -0.163202
N      -1.200642    1.762432   -0.099834
C      -1.590484    3.158125    0.085504
C      -0.449004    4.163369    0.206860
C       0.504754    3.912596    1.359929
C       0.211825    2.847758    2.411761
C       1.253013    2.618463    1.356490
O       1.133125    1.705121    0.290144
H      -1.924600    1.166426   -0.471632
H      -2.212824    3.446770   -0.770189
H      -2.226719    3.241165    0.977803
H       0.119200    4.190983   -0.731288
H      -0.914141    5.148284    0.322192
H       1.055101    4.788467    1.690368
H       0.564292    3.012070    3.423958
H      -0.718802    2.298603    2.351475
H       2.293086    2.614859    1.660602
