18

C      -0.299526    1.352587    0.555573
C      -0.010315   -0.040843    0.029531
C       1.335736   -0.327992   -0.593361
C       0.992612   -0.907864    0.753925
N      -1.163964   -0.710707   -0.552562
C      -1.449561   -0.477634   -1.907633
O      -2.384961   -0.904302   -2.524261
C      -2.013186   -1.429156    0.304626
O      -3.028254   -1.989482   -0.000192
H       0.602294    1.803167    0.979253
H      -0.661895    2.006214   -0.245089
H      -1.065263    1.324797    1.338179
H       1.375011   -1.011905   -1.432981
H       2.044306    0.490765   -0.645515
H       1.462814   -0.491958    1.637713
H       0.805599   -1.974118    0.802619
H      -0.669983    0.169975   -2.353886
H      -1.609761   -1.417490    1.335837
