17

O      -0.153620    0.091298    0.517897
C      -0.008685    1.168446   -0.017068
C       1.215840    1.917335   -0.034922
C       2.236790    2.568122   -0.064064
C       3.444363    3.327165   -0.092452
C       3.881036    4.156525   -1.295990
C       2.667959    4.744421   -2.024652
C       2.249330    5.460879   -0.696475
C       3.475452    4.849987   -0.009526
H      -0.847341    1.664434   -0.548585
H       4.282230    2.863290    0.421454
H       4.867489    3.997112   -1.714705
H       2.953955    5.453639   -2.803476
H       1.962556    4.021716   -2.442608
H       2.314716    6.547535   -0.775449
H       1.278469    5.192320   -0.272370
H       4.091770    5.323576    0.745258
