17

C      -0.039660    1.379071    0.050578
O      -0.001224   -0.026658    0.008004
C       0.651333   -0.523959   -1.137688
C       0.624070   -2.054089   -1.062726
C       1.277474   -2.676969   -2.207328
C       1.823121   -3.163569   -3.163959
C       2.479729   -3.767099   -4.315153
H       0.971590    1.816097    0.065259
H      -0.580816    1.800203   -0.811764
H      -0.560649    1.664968    0.967607
H       0.148111   -0.182085   -2.056831
H       1.693107   -0.166810   -1.183470
H       1.106925   -2.362933   -0.127567
H      -0.421446   -2.378027   -0.991802
H       2.471435   -4.860789   -4.248758
H       1.981389   -3.489862   -5.250804
H       3.525661   -3.449435   -4.391097
