14

C      -0.024428    1.527769    0.061862
C       0.001084    0.033093   -0.039115
C      -0.027461   -0.682626   -1.183485
C       0.001207   -2.150400   -1.179137
O      -0.023566   -2.814834   -2.195339
N       0.060671   -2.773913    0.097791
C       0.085197   -2.034819    1.144866
N       0.058884   -0.666477    1.152317
H       0.871440    1.904861    0.569351
H      -0.068557    1.974795   -0.931905
H      -0.895936    1.870402    0.632308
H      -0.072761   -0.184180   -2.143752
H       0.130710   -2.489931    2.134277
H       0.081849   -0.171151    2.029578
