21

C      -0.115003    1.616945   -0.066983
C      -0.014124    0.105794   -0.046266
C      -1.251055   -0.570220    0.507889
O      -1.404028   -0.193127    1.871734
C       0.682838   -0.676098   -1.137939
C       1.659625    0.040654   -2.074647
C       2.777297    0.491462   -1.155623
C       2.571682    0.105523    0.106649
C       1.289203   -0.633669    0.262034
H       0.836113    2.091724   -0.312822
H      -0.858186    1.942416   -0.805654
H      -0.437119    1.978839    0.913270
H      -2.130381   -0.266390   -0.083792
H      -1.151989   -1.663245    0.412971
H      -2.264885   -0.498816    2.171632
H       0.194253   -1.572696   -1.504696
H       2.027564   -0.635604   -2.857404
H       1.195969    0.888272   -2.597809
H       3.615382    1.084733   -1.504453
H       3.231500    0.314067    0.941364
H       1.232284   -1.471623    0.949219
