21

C       0.754997    0.097948   -0.662447
C      -0.032513   -0.069619    0.640501
O      -0.037202    1.145060    1.375823
C      -1.468641   -0.573295    0.434815
C      -2.495741   -0.137631    1.390425
O      -2.392186    0.484964    0.094159
C      -1.650293   -1.826583   -0.429038
C      -2.916902   -2.635316   -0.147443
O      -1.593328   -1.455495   -1.802450
H       1.749969    0.483239   -0.424770
H       0.853678   -0.839772   -1.212466
H       0.254024    0.813482   -1.322463
H       0.480516   -0.796566    1.283644
H      -0.605978    1.750085    0.881481
H      -3.392890   -0.730606    1.541103
H      -2.195734    0.495249    2.220242
H      -0.779581   -2.474058   -0.267785
H      -3.812607   -2.021419   -0.290782
H      -2.966222   -3.470530   -0.850356
H      -2.926047   -3.035058    0.871425
H      -2.210312   -0.719458   -1.903367
