11

C       0.084046   -1.198796   -0.005008
C       0.007060    0.003829    0.002769
C      -0.075814    1.407604    0.011754
C      -1.145282    2.282704    0.030744
N      -0.716368    3.581181    0.032404
C       0.598282    3.515224    0.014741
N       1.040294    2.231166    0.001725
H       0.141413   -2.258938   -0.011725
H      -2.193340    2.027010    0.043089
H       1.274361    4.357121    0.010585
H       1.995462    1.913918   -0.012615
