21

C       0.022765    1.472724   -0.057501
C       0.035586   -0.039702   -0.027767
C      -1.230968   -0.681008   -0.579483
O      -1.223393   -2.108017   -0.553407
C      -0.031989   -2.676050   -0.015823
C       0.206943   -2.141671    1.409700
C       0.723838   -0.738722    1.122406
C       1.341804   -0.760872   -0.270522
C       1.191287   -2.176950   -0.809084
H       0.953664    1.879841    0.348970
H      -0.087514    1.850550   -1.081006
H      -0.805388    1.876281    0.537295
H      -2.101384   -0.329636   -0.004436
H      -1.384741   -0.355345   -1.619705
H      -0.179364   -3.756599   -0.064024
H      -0.715835   -2.170828    1.997159
H       0.965618   -2.736832    1.931579
H       1.152220   -0.141581    1.920285
H       2.227756   -0.180130   -0.504029
H       2.080293   -2.776783   -0.580981
H       1.007035   -2.232577   -1.886318
