18

O      -0.101246    1.321410   -0.083505
C       0.011926   -0.075283   -0.042968
C      -1.296134   -0.710523   -0.518669
O      -1.431940   -1.930571    0.206925
C      -0.829559   -1.767559    1.497882
C       0.315219   -0.781553    1.308968
N       1.669067   -1.268345    0.818892
C       1.458464   -2.111986   -0.377471
C       1.356560   -0.647232   -0.533712
H       0.734122    1.703420    0.207316
H      -2.119421   -0.014549   -0.297439
H      -1.312216   -0.956647   -1.583586
H      -1.559811   -1.360915    2.214424
H      -0.516269   -2.757015    1.843657
H       0.467613   -0.116283    2.160203
H       2.384073   -2.573415   -0.709711
H       0.577787   -2.738206   -0.460960
H       2.091638   -0.058532   -1.076967
