16

O      -0.026603   -0.002444    0.315605
C      -0.073941    1.182705    0.085658
C      -1.283483    2.040662   -0.108690
C      -0.945249    3.336238   -0.058751
C       0.545534    3.456082    0.020517
C       1.354097    3.730067    1.314980
C       1.047501    2.717365    2.387574
C       1.878305    2.303952    1.209449
N       1.031462    2.059792    0.020842
H      -2.274776    1.617306   -0.202078
H      -1.615135    4.184315   -0.135708
H       0.951264    4.035151   -0.818658
H       1.900731    4.643927    1.503068
H       1.600450    2.864596    3.309780
H       0.045163    2.322336    2.522770
H       2.884080    1.910248    1.265230
