17

C      -0.046752    1.505641    0.063024
C      -0.148114    0.015902    0.341448
O       0.443665   -0.533757    1.252577
N      -0.953101   -0.689427   -0.511986
C      -0.999513   -2.124657   -0.457729
C      -1.863343   -2.808082    0.647261
N      -2.646599   -3.405228   -0.445340
C      -2.012138   -2.741792   -1.459647
O      -2.204716   -2.639706   -2.642502
H       0.007305    2.038485    1.013613
H       0.880892    1.704363   -0.483710
H      -0.883781    1.890213   -0.525582
H      -1.348496   -0.245618   -1.326315
H       0.002310   -2.560025   -0.518380
H      -1.337787   -3.529627    1.276666
H      -2.423460   -2.101095    1.264431
H      -3.481013   -3.972912   -0.449114
