18

C       0.043094    1.407823    0.169393
N       0.048522   -0.037292    0.055310
C      -1.058528   -0.656211   -0.063613
N      -1.096453   -2.038914   -0.070305
C      -2.186341   -2.715955   -0.757964
C      -3.508976   -2.187476   -0.203685
C      -3.559542   -0.670284   -0.232547
O      -4.579753   -0.021710   -0.298136
N      -2.320463   -0.052533   -0.163212
H       1.064201    1.754478    0.347458
H      -0.307936    1.907697   -0.748145
H      -0.573014    1.776670    1.005552
H      -0.169815   -2.423473   -0.184497
H      -2.152057   -2.566078   -1.849540
H      -2.097259   -3.789307   -0.572543
H      -4.369326   -2.562707   -0.760765
H      -3.623245   -2.499598    0.841314
H      -2.353906    0.956453   -0.161634
