17

O       0.412106   -0.232158   -0.095716
C       0.210775    0.945251    0.054630
C       1.253379    2.023755   -0.070148
C       0.776388    3.299817   -0.852011
C       0.998223    4.126610    0.431299
O       0.892055    5.286411    0.711408
C       1.413167    2.905315    1.195990
C       1.055249    2.608372    2.642526
C       2.477921    2.858280    2.270270
H      -0.803964    1.326651    0.321080
H       2.184983    1.588819   -0.435769
H       1.397183    3.586995   -1.703573
H      -0.269893    3.276467   -1.174956
H       0.511639    3.385166    3.169309
H       0.755827    1.592872    2.878814
H       3.160809    2.015973    2.244041
H       2.924487    3.809847    2.538503
