20

O      -3.762377    0.936222    0.151578
C      -3.133318   -0.224782   -0.340630
C      -2.170459   -0.786948    0.712970
O      -2.861999   -0.875783    1.968801
C      -1.488961   -2.109187    0.394148
C      -0.260369   -2.375990    1.247961
O       0.802619   -1.516505    0.879362
C      -2.261672   -3.264645   -0.139149
N      -1.289033   -2.562771   -0.997278
H      -3.935046    0.753410    1.085430
H      -3.880367   -0.988747   -0.624552
H      -2.588493    0.061524   -1.247526
H      -1.389737   -0.038801    0.885871
H      -3.421474   -1.661346    1.934692
H      -0.483237   -2.167512    2.298536
H       0.027470   -3.433368    1.155857
H       0.971134   -1.690579   -0.054802
H      -1.978920   -4.274855    0.144387
H      -3.319565   -3.140010   -0.355448
H      -1.782092   -1.963879   -1.653732
