17

C      -0.038739    1.422807   -0.259240
C      -0.198485   -0.084163   -0.301208
O       0.898136   -0.614104   -1.074418
C       0.900193   -1.952508   -1.225994
O       0.070741   -2.711812   -0.779452
N       2.006497   -2.333894   -1.943983
C       2.144046   -3.697367   -2.399464
C       1.911408   -3.850154   -3.845189
N       1.753111   -3.952700   -4.984818
H       0.908673    1.703343    0.209469
H      -0.064688    1.847058   -1.266826
H      -0.854362    1.863535    0.321313
H      -0.172668   -0.527155    0.699066
H      -1.139782   -0.384011   -0.771245
H       2.559452   -1.608563   -2.371478
H       3.138832   -4.093041   -2.165088
H       1.407172   -4.289413   -1.849007
