15

C      -0.021632    1.446950    0.007346
C      -0.000305   -0.040550   -0.019391
N      -0.047892   -0.759111   -1.116234
N      -0.003800   -2.051380   -0.653959
C      -0.009416   -3.348463   -1.130782
C       0.063129   -4.112737    0.014128
N       0.113236   -3.352118    1.175582
C       0.069562   -2.131711    0.702538
N       0.071984   -0.818068    1.120245
H       0.881696    1.850997    0.477193
H      -0.077810    1.816216   -1.017096
H      -0.886296    1.824093    0.564285
H      -0.061488   -3.586412   -2.177820
H       0.082411   -5.190708    0.068730
H       0.117402   -0.494900    2.069893
