25

C       0.091179    1.520236    0.227722
C      -0.047278    0.003698    0.052076
C       0.631468   -0.508821   -1.212819
C       2.189428   -0.495952   -1.309206
C       2.167523   -1.929326   -1.932931
C       2.704424   -2.064562   -3.340716
C       2.481814   -3.046434   -0.905618
C       1.003320   -3.012197   -0.416610
C       0.636055   -2.020096   -1.560267
H       1.144026    1.818799    0.278764
H      -0.363177    2.058352   -0.611850
H      -0.395925    1.863029    1.145996
H       0.374137   -0.499663    0.931218
H      -1.111472   -0.267483    0.026127
H       0.218799    0.035487   -2.071809
H       2.618096    0.283554   -1.944857
H       2.692211   -0.453985   -0.336623
H       3.794673   -1.939183   -3.359360
H       2.477244   -3.050154   -3.763103
H       2.276414   -1.308162   -4.009115
H       2.738134   -3.994675   -1.388861
H       3.256797   -2.821713   -0.165677
H       0.487434   -3.973051   -0.478392
H       0.860005   -2.625812    0.595554
H      -0.125174   -2.371687   -2.260789
