20

C       1.161301    0.780838   -0.981562
C       1.825485   -0.515529   -0.492295
C       3.356368   -0.446840   -0.591742
C       1.411337   -0.783821    0.938688
O       0.073734   -1.221696    1.191152
C       1.138402   -2.127131    1.510763
C       1.203099   -3.425322    0.735594
C       1.368881   -2.284193    2.942012
N       1.572702   -2.431558    4.070136
H       1.493139    1.640558   -0.388182
H       1.420874    0.976085   -2.026413
H       0.072496    0.715205   -0.903859
H       1.465467   -1.337526   -1.119734
H       3.756495    0.351804    0.043317
H       3.824960   -1.386310   -0.282051
H       3.665735   -0.237675   -1.620024
H       1.756252   -0.028017    1.648963
H       0.447794   -4.120726    1.112472
H       1.013461   -3.252670   -0.323864
H       2.184900   -3.893172    0.853894
