19

C       0.096346    1.553562    0.185261
C      -0.097669    0.049159   -0.070593
C       0.646251   -0.452037   -1.275608
C       0.094363   -0.862705   -2.469951
N       1.103673   -1.247710   -3.320093
C       0.931865   -1.652941   -4.697707
C       2.306004   -1.077025   -2.681370
C       2.059667   -0.590399   -1.419068
H       1.154053    1.793571    0.333773
H      -0.257901    2.141797   -0.667227
H      -0.451774    1.877220    1.076536
H       0.221051   -0.506152    0.821319
H      -1.166793   -0.161679   -0.192192
H      -0.937222   -0.917489   -2.783285
H       0.879010   -0.792406   -5.375729
H       1.771273   -2.283041   -5.001217
H       0.011928   -2.234288   -4.802181
H       3.230386   -1.322661   -3.180785
H       2.806032   -0.377050   -0.668027
