17

C      -0.002017    1.532173   -0.025049
C       1.301280    0.786492    0.029201
O       2.024654    0.868670    1.223184
C       2.131472   -0.345083    1.949840
C       0.778628   -0.944936    2.282377
N      -0.290526    0.021065    2.579926
C      -0.321701   -0.726859    1.307607
C       0.000906    0.020525    0.042807
H      -0.280217    2.053519    0.883023
H      -0.294363    2.003458   -0.956684
H       1.927977    0.744689   -0.860728
H       2.724245   -1.092483    1.395304
H       2.679883   -0.089422    2.862251
H       0.813152   -1.880143    2.837467
H      -0.958040   -0.382171    3.231400
H      -1.071902   -1.506503    1.205529
H      -0.257151   -0.517616   -0.863981
