22

C       0.086999    1.628186    0.219387
C       0.022957    0.102642   -0.004487
C       0.664757   -0.339684   -1.341481
C      -0.059511    0.185988   -2.582217
N       0.574946   -0.324105   -3.792441
C       0.080306   -1.601899   -4.294362
C      -0.240888   -0.330407   -5.000028
C       0.650487   -0.603368    1.112360
C       1.186639   -1.175192    2.024115
H       1.125062    1.974346    0.204483
H      -0.466808    2.162731   -0.557044
H      -0.344110    1.893257    1.188055
H      -1.037219   -0.189801   -0.029060
H       1.711246   -0.017022   -1.368949
H       0.675394   -1.434507   -1.377332
H      -1.131565   -0.088006   -2.531899
H      -0.011675    1.279843   -2.624685
H       0.830215   -2.281250   -4.689087
H      -0.731444   -2.084693   -3.751161
H      -1.265762    0.031228   -4.926957
H       0.271073   -0.061934   -5.919787
H       1.650417   -1.684404    2.832104
