20

C      -0.161373    1.534455    0.105911
N      -0.098339    0.087074    0.014608
C       0.573787   -0.581765    0.849612
C       0.585655   -2.092714    0.774244
C       1.936640   -2.751398    0.581836
C       3.020838   -2.532303    1.322542
C       3.096696   -1.541471    2.459039
C       2.609807   -0.137305    2.097480
O       1.192550   -0.010137    1.940380
H       0.460450    1.969105    0.895599
H       0.130786    1.959426   -0.861059
H      -1.202800    1.832198    0.275725
H       0.137541   -2.469198    1.706723
H      -0.085537   -2.365975   -0.040107
H       1.987693   -3.489493   -0.214052
H       3.922420   -3.099506    1.106044
H       2.517403   -1.896534    3.323409
H       4.133456   -1.449264    2.801340
H       2.850286    0.557150    2.907937
H       3.113873    0.211662    1.186520
