15

O      -0.168051    1.328005   -0.016176
N       0.004525   -0.071659    0.020432
C      -1.113197   -0.663452   -0.056115
C      -2.577116   -0.245112   -0.044290
C      -2.935413   -1.740220    0.076302
C      -2.385074   -2.498343   -1.073980
O      -2.368863   -1.915356   -2.341734
C      -1.413355   -2.116791    0.025512
H       0.737242    1.643516    0.073791
H      -2.812851    0.335503    0.851328
H      -2.954056    0.272193   -0.928111
H      -3.698460   -2.144330    0.728771
H      -2.627517   -3.562352   -1.067166
H      -1.525418   -2.122349   -2.757829
H      -0.844641   -2.857689    0.573536
