21

C      -0.051076    1.603910   -0.180008
C       0.069956    0.087997   -0.058695
C       1.163231   -0.699620   -0.843127
C       2.518998   -0.103976   -0.372105
C       2.175600   -0.687031    0.996489
C       1.240028   -1.701107    0.380746
C       0.651986   -0.573958    1.199321
C       0.039555   -0.645041    2.564864
O       0.204483    0.546875    3.328905
H       0.869574    2.117419    0.110429
H      -0.292842    1.899654   -1.207438
H      -0.857696    1.984264    0.459103
H      -0.902215   -0.376247   -0.268330
H       1.005493   -0.968528   -1.886109
H       3.359425   -0.638729   -0.823886
H       2.679536    0.974461   -0.477853
H       2.825605   -0.818249    1.852412
H       1.161478   -2.774723    0.474812
H      -1.026824   -0.912480    2.481858
H       0.522481   -1.435664    3.150566
H      -0.200326    1.267182    2.836043
