21

O       0.093259    1.341215   -0.113127
C       0.015451   -0.028539    0.231653
C      -1.406720   -0.536669    0.063734
C      -2.426995    0.006697    1.080587
C      -2.862666   -1.241681    1.874416
C      -2.862646   -2.375335    0.826658
C      -1.640961   -2.065971   -0.060699
C      -1.879324   -1.762407   -1.553145
O      -1.809548   -0.335135   -1.330106
H      -0.311599    1.408852   -0.987441
H       0.698624   -0.637052   -0.383519
H       0.335751   -0.118763    1.276097
H      -2.014299    0.800715    1.707470
H      -3.272728    0.425810    0.526688
H      -2.125207   -1.461525    2.656759
H      -3.828728   -1.118474    2.371948
H      -2.821552   -3.370956    1.276525
H      -3.783005   -2.328118    0.232347
H      -0.784089   -2.707027    0.158271
H      -1.085018   -2.104964   -2.227888
H      -2.850235   -2.065302   -1.963511
