20

C       0.128304    1.190311   -0.329144
O      -0.110327   -0.036607    0.338294
C      -1.401788   -0.564593    0.171916
C      -2.490915    0.144049    0.944067
C      -1.694249   -1.223510   -1.161741
C      -1.398270   -2.063495    0.070129
N      -0.141255   -2.728846    0.199853
C      -0.032177   -4.077876    0.304681
O      -0.955834   -4.861642    0.230840
H       1.183720    1.429752   -0.181223
H      -0.076566    1.110464   -1.405267
H      -0.478018    2.006986    0.083813
H      -2.660592    1.157939    0.565973
H      -3.435377   -0.400187    0.859897
H      -2.225045    0.211108    2.003791
H      -2.707891   -1.207748   -1.547796
H      -0.913619   -1.183343   -1.913410
H      -2.213797   -2.621728    0.514624
H       0.666679   -2.141148    0.341390
H       1.018283   -4.390390    0.470402
