20

C      -0.136636    1.546000   -0.073084
C       0.025195    0.047588    0.049695
C       1.373183   -0.634637   -0.199041
C       2.535999    0.161897   -0.464327
N       3.471897    0.810016   -0.675281
C       0.740884   -0.609726    1.197475
C       1.365421    0.150062    2.322994
C       0.712134    0.136272    3.685181
C       2.007326   -0.602231    3.463656
H       0.761831    2.085829    0.233262
H      -0.348421    1.825380   -1.109918
H      -0.969301    1.893366    0.547118
H      -0.812091   -0.518711   -0.349652
H       1.363013   -1.579490   -0.731778
H       0.340674   -1.574594    1.500306
H       1.856317    1.074736    2.040291
H       0.728270    1.049550    4.269249
H      -0.191880   -0.451455    3.807597
H       1.973609   -1.686529    3.436391
H       2.916500   -0.198259    3.893771
