16

C      -0.128396    1.496546   -0.013804
C       0.040980   -0.005414    0.023472
O       1.120451   -0.556791    0.058979
C      -1.194171   -0.826292    0.015574
C      -1.378545   -2.175179    0.041977
C      -2.792050   -2.330358    0.015103
C      -3.598318   -3.588827    0.026094
N      -3.394928   -1.159250   -0.023897
O      -2.390856   -0.205050   -0.023928
H       0.853957    1.968700   -0.003355
H      -0.681566    1.794926   -0.910510
H      -0.719134    1.834254    0.844155
H      -0.613917   -2.932754    0.075321
H      -3.394466   -4.174481    0.928091
H      -4.663259   -3.352063   -0.004788
H      -3.352548   -4.216779   -0.836097
