16

O      -0.196834    1.119153    1.223067
C       0.003160    0.138173    0.237963
C       0.513752   -1.149414    0.917084
C      -0.937500   -1.736570    0.920927
C      -1.626032   -1.597179    2.262596
O      -2.117940   -2.525253    2.850056
C      -1.311549   -0.638952   -0.142138
C      -2.550727    0.106363   -0.025667
N      -3.501775    0.756467    0.078805
H      -0.763181    1.813723    0.865315
H       0.575350    0.524163   -0.614049
H       1.182327   -1.730269    0.279309
H       0.985944   -0.988775    1.887640
H      -1.052413   -2.765358    0.579404
H      -1.620842   -0.571313    2.685709
H      -1.234203   -1.061857   -1.147283
