24

C      -0.076428    1.558526    0.011881
C      -0.042974    0.022663   -0.005812
C      -1.487537   -0.511801    0.035317
C       0.698497   -0.465651   -1.267203
C       0.767234   -1.996969   -1.343262
C       1.151292   -2.642060   -0.021971
C       2.392220   -2.271908    0.704436
N       1.088092   -1.899312    1.249621
C       0.739257   -0.466288    1.233154
H       0.930870    1.980696   -0.074663
H      -0.674678    1.946731   -0.820055
H      -0.518552    1.934390    0.941654
H      -2.028542   -0.255137   -0.882590
H      -1.522724   -1.597477    0.157809
H      -2.032286   -0.071342    0.877347
H       0.205048   -0.077666   -2.166339
H       1.710307   -0.038936   -1.266511
H      -0.213972   -2.383635   -1.641003
H       1.465389   -2.311651   -2.128480
H       0.806642   -3.670605    0.080635
H       2.950626   -3.015879    1.268355
H       3.009059   -1.480239    0.278992
H       1.656990    0.129633    1.328508
H       0.143414   -0.264797    2.132704
