13

O       0.079986    1.316593   -0.008582
C       0.064821   -0.029463   -0.068830
C       0.004539   -0.787229   -1.218253
N       0.014861   -2.097933   -0.733130
C      -0.012610   -3.449068   -1.059047
C       0.035935   -4.112411    0.116372
O       0.093244   -3.226415    1.177733
C       0.078650   -1.999912    0.621557
N       0.111581   -0.779318    1.088335
H       0.125653    1.544852    0.927878
H      -0.041554   -0.534153   -2.260385
H      -0.062832   -3.821018   -2.067082
H       0.038079   -5.157155    0.368100
