20

O       0.079030    1.295642   -0.414034
C      -0.124257   -0.069768   -0.065004
C      -1.598695   -0.226253    0.276498
N      -2.436286    0.154559   -0.843525
C      -3.376905   -0.670225   -1.384238
O      -3.643122   -1.767938   -0.920337
C      -4.065120   -0.120934   -2.629075
C      -5.467426   -0.690848   -2.797868
O      -5.979353   -0.194124   -4.026766
H       0.974170    1.396614   -0.749400
H       0.133734   -0.735902   -0.901494
H       0.486177   -0.357454    0.804418
H      -1.834460   -1.264207    0.519577
H      -1.828500    0.393854    1.152873
H      -2.221403    1.031779   -1.289699
H      -4.104385    0.973568   -2.609649
H      -3.468304   -0.399228   -3.507047
H      -5.410084   -1.786218   -2.784992
H      -6.097624   -0.386685   -1.947902
H      -6.844233   -0.589408   -4.168238
