19

C       0.043495    1.493217    0.312103
C      -0.013775    0.054841    0.101929
C      -0.069377   -1.137637   -0.059740
C      -0.085922   -2.553122   -0.289906
C       0.847271   -3.181480   -1.318799
C       0.337486   -4.635331   -1.456921
C      -1.173034   -4.578698   -1.121365
C      -1.284577   -3.410560   -0.163708
O      -0.288000   -3.409208    0.862059
H       0.878232    1.941671   -0.237691
H      -0.877546    1.984119   -0.021415
H       0.180434    1.729681    1.373071
H       0.749651   -2.625903   -2.258575
H       1.895235   -3.126188   -1.010807
H       0.529598   -5.050117   -2.449125
H       0.846684   -5.270366   -0.729486
H      -1.778379   -4.364468   -2.010908
H      -1.542934   -5.513936   -0.689561
H      -2.251281   -3.005041    0.124706
