19

C       0.031516    1.606166   -0.019313
C       1.536783    2.033994   -0.052265
C       2.075620    0.872758    0.760313
N       3.153772    0.761644    1.734427
C       1.750495    0.874436    2.209313
C       0.775446   -0.275401    2.449788
N       0.431640   -0.846339    1.130948
C       0.052449    0.055810   -0.011480
C       1.449129   -0.391907    0.184772
H      -0.469428    2.023445    0.860668
H      -0.522071    1.951246   -0.897051
H       1.911082    2.050767   -1.082085
H       1.725180    3.011493    0.398437
H       3.487838   -0.200879    1.761892
H       1.564513    1.812694    2.723704
H       1.188715   -1.092050    3.055114
H      -0.118650    0.090356    2.966479
H      -0.625132   -0.451611   -0.689748
H       2.008015   -1.106627   -0.413215
