17

O      -0.643077    0.850459   -0.774479
C       0.015794    1.103945    0.200591
C       1.285445    1.943911    0.149714
C       1.497957    2.640504   -1.203677
C       2.589571    3.700260   -1.107020
O       2.259291    4.665857   -0.119573
C       2.254745    4.128271    1.181942
C       1.380134    2.886129    1.359753
O       0.866050    2.629599    2.422248
H      -0.258121    0.739490    1.208843
H       2.110991    1.230768    0.325602
H       1.739170    1.900415   -1.972584
H       0.563087    3.119574   -1.510173
H       3.568050    3.242085   -0.879640
H       2.686586    4.248692   -2.047513
H       3.276433    3.839602    1.496717
H       1.902159    4.902318    1.867175
