19

C      -0.012689    1.504467   -0.006857
C      -0.008769   -0.001065   -0.001789
C       0.986790   -0.879167   -0.767831
C       0.261335   -2.056962   -1.403766
C      -1.056773   -2.127029   -0.643584
C      -0.937133   -2.040577    0.855670
O       0.355709   -1.935987    1.399506
C       0.988240   -0.865269    0.741463
C      -1.297053   -0.798376    0.073732
H       1.007699    1.900559    0.000423
H      -0.512884    1.902227   -0.897503
H      -0.528533    1.905529    0.873140
H       1.830401   -0.429094   -1.281626
H       0.086612   -1.876993   -2.470835
H       0.833705   -2.987989   -1.312409
H      -1.886153   -2.690899   -1.056939
H      -1.620353   -2.572013    1.507330
H       1.829965   -0.473342    1.301095
H      -2.257543   -0.303794    0.134639
