18

O      -0.643988    0.308636    1.250900
C      -0.224944   -0.008810   -0.073156
C      -1.321110   -0.844792   -0.729391
C      -1.445654   -2.241117   -0.142773
C      -1.887437   -2.540943    1.254557
N      -2.921557   -1.615449    1.721982
C      -3.766113   -1.930631    0.637186
O      -4.832328   -1.494195    0.305415
C      -2.783350   -2.964088    0.101225
H       0.062115    0.790869    1.690123
H      -0.063130    0.907932   -0.659701
H       0.723797   -0.568055   -0.060588
H      -2.264173   -0.295866   -0.645089
H      -1.107652   -0.926349   -1.801168
H      -0.684371   -2.935323   -0.499378
H      -1.351274   -3.167124    1.955603
H      -2.681497   -0.657199    1.956797
H      -3.000275   -3.944497   -0.298397
