19

C      -0.002916    1.596391    0.159468
C      -0.026285    0.085918   -0.136472
C      -1.396249   -0.514887   -0.075969
C      -2.110635   -1.085595   -1.040667
C      -3.428719   -1.569995   -0.515811
O      -3.462572   -1.150187    0.848395
C      -2.205972   -0.578609    1.215454
C      -1.532874   -1.368118    2.255583
C      -0.963380   -2.001739    3.103657
H       1.016665    1.985913    0.085333
H      -0.629748    2.145557   -0.549932
H      -0.367088    1.813749    1.168394
H       0.401334   -0.101475   -1.127085
H       0.618029   -0.427978    0.588725
H      -1.801989   -1.212837   -2.071333
H      -4.288826   -1.133108   -1.044283
H      -3.528433   -2.665463   -0.581432
H      -2.396740    0.427256    1.620833
H      -0.471786   -2.566245    3.857172
