18

C      -0.337494    1.422773   -0.004655
C      -0.374512   -0.049503    0.361432
O      -1.245130   -0.714345   -0.560686
C      -1.389219   -2.076993   -0.329273
C      -2.265697   -2.548121    0.829014
O      -2.835054   -1.607167    1.679392
C      -2.790718   -2.575305   -0.592521
O      -3.751530   -1.593605   -0.866649
H       0.334330    1.962052    0.669588
H       0.017642    1.559311   -1.030197
H      -1.334191    1.866492    0.076973
H       0.630397   -0.492358    0.290984
H      -0.745950   -0.200749    1.380849
H      -0.540289   -2.694845   -0.624486
H      -2.001639   -3.480010    1.321960
H      -3.593293   -1.247766    1.192557
H      -2.960142   -3.509990   -1.118039
H      -3.255595   -0.799927   -1.117229
