18

C      -0.026730    1.516546    0.065252
N       1.308505    2.108282   -0.077671
C       2.248736    1.345707   -0.869992
C       2.764335    0.057371   -0.228928
O       2.285444   -0.245064    1.048909
C       0.927141   -0.656611    1.118125
C       0.044910   -0.013852    0.045940
O       0.519655   -0.435753   -1.235905
C       1.840407   -0.005425   -1.425699
H      -0.473386    1.859538    1.007318
H      -0.711944    1.800064   -0.749208
H       1.236588    3.049026   -0.439060
H       2.945392    1.953636   -1.437571
H       3.807102   -0.224248   -0.339760
H       0.853940   -1.747401    0.993349
H       0.576639   -0.397191    2.122422
H      -0.967062   -0.418779    0.139449
H       2.219356   -0.349546   -2.382539
