16

C       0.163762    1.407904    0.101990
O       0.008678   -0.013248    0.085968
C       0.584788   -0.701326    1.067650
C       0.720238   -2.037022    1.279709
N       1.388121   -2.216382    2.484371
C       1.621146   -1.027527    2.935601
C       2.377175   -0.623912    4.153522
O       3.702485   -0.188473    3.868600
O       1.149720   -0.033160    2.106762
H       1.221269    1.688108    0.067950
H      -0.346142    1.767894   -0.791466
H      -0.295185    1.843396    0.994692
H       0.386830   -2.855522    0.665604
H       1.888091    0.224083    4.641515
H       2.362144   -1.477509    4.842924
H       4.161940   -0.928862    3.457295
