14

O      -0.185993    1.521443   -0.041791
C      -0.035957    0.119170    0.016184
C      -1.348986   -0.636514    0.118553
C      -2.230061   -0.271441   -1.032495
C      -1.141971   -1.243730   -1.369866
O      -1.440930   -2.450375   -1.927073
C       0.219878   -0.669295   -1.307173
O       1.238960   -1.029239   -1.845555
H       0.656066    1.896170   -0.322113
H       0.701936   -0.182802    0.772496
H      -1.694729   -1.180264    0.986572
H      -3.206510   -0.747025   -1.031307
H      -2.217345    0.741636   -1.419348
H      -0.613560   -2.945948   -1.996313
