19

C       0.184285    1.370940   -0.040225
N       0.098786   -0.072442    0.012540
C       0.215325   -0.925858   -1.062742
C       0.077884   -2.219984   -0.612463
C       0.116336   -3.453049   -1.466343
O       0.916199   -3.293915   -2.632570
C      -0.105371   -2.149839    0.799803
C      -0.088488   -0.817664    1.155520
N      -0.286046   -0.163643    2.390526
H       1.220879    1.726001    0.019831
H      -0.250420    1.729685   -0.976345
H      -0.376686    1.785981    0.799262
H       0.380432   -0.544322   -2.057174
H       0.453614   -4.311473   -0.862071
H      -0.882150   -3.710860   -1.841649
H       1.757489   -2.927522   -2.339057
H      -0.230382   -2.981217    1.478224
H      -0.753544   -0.779448    3.044200
H       0.584861    0.136010    2.820432
