18

C       0.203229    1.495976    0.013105
C       0.047298   -0.037260    0.013309
N       0.575346   -0.610941   -1.222350
C       1.796258   -0.969183   -1.209684
N       2.443277   -1.359112   -2.365027
C       2.668948   -0.898335    0.023702
O       1.924768   -1.090132    1.220114
C       0.633651   -0.643164    1.274953
N      -0.051110   -0.743806    2.333934
H       1.257266    1.792734    0.039124
H      -0.239814    1.905117   -0.898619
H      -0.299073    1.925381    0.883422
H      -1.021749   -0.259397    0.052797
H       1.819404   -1.489502   -3.150019
H       3.143799   -2.079973   -2.276452
H       3.439876   -1.675687    0.018957
H       3.184250    0.072374    0.047999
H       0.507908   -1.160116    3.081778
