15

O      -0.074728   -0.048930    0.161651
C      -0.096928    1.150734    0.017308
C      -1.312977    2.027695   -0.315261
C      -0.814538    3.457682   -0.180001
O      -0.951663    3.989347    1.157971
C       0.475284    4.156644    1.298261
C       0.731402    3.395370   -0.021285
N       0.994730    1.985813    0.097186
H      -1.656834    1.791613   -1.327362
H      -2.131270    1.818644    0.377192
H      -1.207658    4.151096   -0.929537
H       0.766496    5.214921    1.270025
H       0.862635    3.690522    2.210723
H       1.367516    3.885614   -0.761828
H       1.897038    1.605087    0.336121
