21

C      -0.376085    1.488073    0.186465
C       0.060505    0.047145   -0.032578
C      -1.073425   -1.008175    0.188283
C      -0.374727   -1.500745    1.484517
C       0.864219   -0.620617    1.162044
C       2.059533   -1.352345    0.539657
C       1.829614   -1.338770   -0.977663
O       2.308175   -2.107814   -1.769855
C       0.886997   -0.175791   -1.302086
H       0.486598    2.163987    0.215719
H      -1.040011    1.828133   -0.616948
H      -0.918666    1.598515    1.132091
H      -2.076119   -0.591407    0.313765
H      -1.119912   -1.764629   -0.600545
H      -0.890029   -1.191964    2.397174
H      -0.186512   -2.575901    1.550508
H       1.166891    0.057083    1.963432
H       2.997441   -0.812324    0.725015
H       2.207785   -2.375096    0.896674
H       0.300106   -0.385228   -2.200228
H       1.515365    0.700530   -1.519123
