23

C       0.014829    1.567535   -0.050844
C      -0.009400    0.030204   -0.041018
C      -1.457882   -0.466286    0.076059
C       0.716612   -0.575449   -1.282691
C       0.681739   -2.107400   -1.274422
O       0.090933   -0.156270   -2.490692
C       2.178885   -0.119879   -1.303250
C       2.966035   -0.121516   -2.539708
O       2.436733    1.103882   -2.005410
H       1.027838    1.973486   -0.107133
H      -0.551350    1.957227   -0.903632
H      -0.454346    1.957388    0.857703
H       0.547399   -0.312569    0.843258
H      -2.000824   -0.267780   -0.853152
H      -1.517328   -1.538006    0.283227
H      -1.974004    0.053447    0.889388
H      -0.341560   -2.467424   -1.395928
H       1.277135   -2.501805   -2.101875
H       1.080586   -2.506637   -0.336259
H       0.443880    0.724060   -2.681686
H       2.710602   -0.208426   -0.355395
H       4.049359   -0.212043   -2.492748
H       2.498218   -0.454877   -3.462814
