19

C      -0.021494    1.496200   -0.039139
C       0.012548   -0.005934   -0.035671
C       0.561645   -0.965763   -1.125026
C       0.035272   -1.905807   -0.018174
C       0.617962   -0.952578    1.082174
C      -0.357879   -0.951692    2.247788
C      -1.555008   -0.960141    1.659398
C      -1.219918   -0.966508    0.171115
O      -2.239016   -0.897790   -0.777606
H       0.986237    1.915137   -0.132359
H      -0.620213    1.867710   -0.877457
H      -0.464778    1.872496    0.889481
H       0.019596   -0.978317   -2.072616
H       1.643980   -0.953372   -1.283732
H       0.042441   -2.999186    0.008629
H       1.693270   -0.940739    1.258197
H      -0.104684   -0.935143    3.298609
H      -2.548953   -0.943106    2.084986
H      -2.795827   -1.677826   -0.685286
