21

C       0.228582    1.667016   -0.506495
C       0.360544    0.197372   -0.156656
C       1.535049   -0.700873   -0.494419
C       2.869399    0.023539   -0.237251
C       2.494450    0.136447    1.277773
C       2.535530    1.438916    2.055543
O       1.802619    1.192775    3.258327
C       1.127395   -0.470850    0.959129
O       0.514262   -1.363435    1.824140
H       1.189354    2.185855   -0.535645
H      -0.227818    1.781743   -1.496449
H      -0.409952    2.191440    0.213498
H      -0.573120   -0.348879   -0.285528
H       1.422372   -1.584603   -1.110805
H       3.747798   -0.601866   -0.405932
H       3.012260    0.965032   -0.777340
H       3.059058   -0.614099    1.840713
H       3.575377    1.726323    2.277992
H       2.079611    2.259143    1.485445
H       1.762192    2.009468    3.764164
H       0.326677   -0.866548    2.630204
