19

C       0.017145    1.314286   -0.275030
O      -0.078705    0.013901    0.285680
C      -1.327561   -0.570574    0.134006
C      -2.446307   -0.163468    1.087559
O      -3.374794   -1.249739    1.065307
C      -2.632553   -2.464872    0.867547
C      -1.457779   -2.077466   -0.005311
C      -1.772983   -1.167243   -1.178133
O      -3.051172   -1.012856   -1.713814
H       1.055773    1.632023   -0.160319
H      -0.245172    1.312732   -1.341511
H      -0.631576    2.034684    0.242770
H      -2.022261   -0.006011    2.091067
H      -3.001287    0.732647    0.792835
H      -2.287853   -2.874056    1.828533
H      -3.320631   -3.181999    0.409290
H      -0.579371   -2.711113   -0.039090
H      -1.027018   -1.160726   -1.966514
H      -3.674873   -1.030985   -0.974267
