17

C       0.018135    1.482503    0.018475
N       1.280046    0.709222   -0.043638
C       2.014816    0.602801    1.159481
N       2.002492   -0.366576    1.979595
C       1.077039   -1.474299    1.722236
C      -0.248482   -1.020613    1.083940
O      -0.770304   -1.944203    0.095536
C      -0.477818   -1.038276   -0.998815
C       0.017948    0.002813   -0.007267
H      -0.222867    1.981034    0.954610
H      -0.226417    2.037238   -0.882901
H       2.678737    1.448594    1.340726
H       1.547080   -2.191456    1.037501
H       0.907124   -1.998888    2.666372
H      -1.003125   -0.770760    1.837284
H       0.283683   -1.432480   -1.682264
H      -1.380375   -0.776692   -1.563639
