20

C      -0.321550    1.607957    0.082021
C      -0.222131    0.081744    0.042203
C       0.811670   -0.469626    1.044087
C       0.914876   -1.953252    1.045011
C       1.869707   -2.861329    0.708992
C       3.254754   -2.651559    0.195385
N       1.365061   -4.148083    0.918915
C       0.167291   -3.954714    1.355933
O      -0.193266   -2.658054    1.465485
H       0.639063    2.075833   -0.161362
H      -1.061478    1.975630   -0.635235
H      -0.617743    1.960111    1.076404
H      -1.199155   -0.362948    0.262297
H       0.048159   -0.251478   -0.966875
H       1.801420   -0.058041    0.817751
H       0.554303   -0.118849    2.052950
H       3.991603   -3.110335    0.863192
H       3.380505   -3.114682   -0.789188
H       3.491021   -1.588392    0.104435
H      -0.569535   -4.689415    1.641500
