19

O       0.021814    1.095013    0.767021
C      -0.037409   -0.291884    0.530872
C      -1.364286   -0.686989   -0.122575
C      -1.645768   -2.193135   -0.084679
O      -2.331025   -2.357414    1.152584
C      -3.108626   -1.191193    1.330498
C      -3.215158   -0.905576    2.824351
O      -1.948999   -0.849776    3.440945
O      -2.445956   -0.140146    0.645325
H      -0.762905    1.300413    1.290469
H       0.792648   -0.543202   -0.139409
H       0.089642   -0.866255    1.461801
H      -1.424926   -0.267372   -1.131995
H      -2.277817   -2.510782   -0.925541
H      -0.743673   -2.809830   -0.060634
H      -4.112215   -1.322420    0.888545
H      -3.692544    0.068811    2.962295
H      -3.864795   -1.671363    3.276593
H      -1.507828   -1.677480    3.215384
