21

O       0.230422    1.322116    0.150196
C       0.048517   -0.082051    0.237986
C      -1.327119   -0.531915   -0.267242
C      -1.475048   -2.036692   -0.199044
C      -2.079458   -2.693128    1.016526
O      -2.593582   -1.866990    2.018327
C      -2.819075   -2.754047   -0.303123
C      -4.138764   -2.018135   -0.409596
O      -5.038093   -2.357122    0.661351
H      -0.393259    1.733889    0.756723
H       0.839048   -0.520817   -0.381606
H       0.199258   -0.446217    1.265619
H      -2.091416   -0.058379    0.357536
H      -1.461460   -0.167157   -1.292726
H      -0.651640   -2.581858   -0.655575
H      -1.619953   -3.609463    1.386077
H      -3.553976   -1.994163    2.012416
H      -2.797472   -3.712064   -0.817196
H      -4.009857   -0.937697   -0.330544
H      -4.613227   -2.217765   -1.379588
H      -5.192086   -3.307157    0.622405
