18

C       0.028347    1.425196    0.247112
N      -0.083869   -0.018919    0.211449
C      -1.257512   -0.628987   -0.107934
N      -2.281884    0.033790   -0.487180
C      -1.147226   -2.177109   -0.041382
C      -0.601671   -2.716376   -1.372630
O      -0.231891   -2.605059    0.965936
C      -2.482128   -2.752069    0.230137
N      -3.511922   -3.219153    0.467891
H       1.066719    1.693910    0.451765
H      -0.270094    1.846892   -0.716257
H      -0.618679    1.868846    1.014136
H       0.604319   -0.584413    0.678934
H      -3.065415   -0.579053   -0.703633
H       0.389749   -2.290681   -1.540454
H      -0.526422   -3.804799   -1.330495
H      -1.257633   -2.426031   -2.195118
H      -0.619679   -2.419855    1.829976
