22

C       0.594770    1.711212    0.270149
C      -0.123548    0.388256   -0.026330
C       0.442180   -0.329010   -1.242751
C       0.237135    0.365999   -2.576697
N       1.705544   -1.021826   -1.004336
C       0.510776   -1.842989   -1.282690
C      -0.015554   -2.730612   -0.190371
C      -0.907780   -3.866209   -0.664091
O       0.228214   -2.554690    0.981948
H       1.667433    1.539369    0.402400
H       0.463015    2.447638   -0.529528
H       0.209441    2.157171    1.191760
H      -0.028480   -0.271618    0.837433
H      -1.194484    0.569244   -0.186796
H       0.739325    1.339057   -2.590578
H       0.637287   -0.229798   -3.403447
H      -0.826540    0.541715   -2.770525
H       2.295758   -0.998654   -1.833251
H       0.416539   -2.271548   -2.279307
H      -0.336756   -4.557281   -1.295689
H      -1.307819   -4.405016    0.195256
H      -1.730103   -3.481438   -1.278365
