23

C      -0.016671    1.607960    0.055688
C       0.107348    0.089845   -0.009960
C       0.832866   -0.598897   -1.164047
C       1.308481   -1.719863   -0.268901
C       2.323870   -0.731546   -0.795798
C       3.386357   -0.940012   -1.833543
C       2.492510   -0.108815    0.589785
C       1.090796   -0.694907    0.926247
C       0.706308   -1.032319    2.343016
H       0.939497    2.109005   -0.118739
H      -0.717458    1.968566   -0.705876
H      -0.397557    1.934372    1.030546
H      -0.886407   -0.363777    0.099025
H       0.517621   -0.675331   -2.198381
H       1.225934   -2.794695   -0.352397
H       3.015144   -1.550692   -2.663931
H       3.728706    0.013800   -2.253045
H       4.260742   -1.449769   -1.412350
H       3.275487   -0.628961    1.152734
H       2.642999    0.973189    0.685230
H       0.625145   -0.124513    2.953465
H      -0.260444   -1.546775    2.383314
H       1.451129   -1.681786    2.816389
