20

O       0.219807    1.785324    0.569946
C       0.230913    0.446540    0.088298
C       1.108100    0.318470   -1.136430
C       0.814081   -0.681515   -2.182296
N       0.594317    0.751475   -2.456490
C       0.696758   -0.459908    1.221197
O       0.621671   -1.823048    0.890807
C       1.872243   -0.071872    2.063944
C       0.475699   -0.068850    2.657393
H       0.236614    2.372075   -0.192901
H      -0.795397    0.136883   -0.192479
H       2.144788    0.600506   -0.965113
H       1.627957   -1.136930   -2.737839
H      -0.050599   -1.323477   -2.040494
H      -0.403083    0.950169   -2.386901
H      -0.298149   -2.096885    0.978982
H       2.542950   -0.872186    2.353099
H       2.335705    0.888825    1.874664
H       0.014485    0.888753    2.863297
H       0.225401   -0.872523    3.341453
