17

O      -0.090332    1.347266   -0.116498
C      -0.038309   -0.053859   -0.028999
C       1.060273   -0.717603   -0.857865
C       0.685661   -2.069175   -1.412967
C      -0.368941   -2.754641   -0.975589
C      -1.205562   -2.172488    0.126788
O      -0.429452   -2.009991    1.376917
C      -0.568520   -0.598246    1.283062
C      -1.420033   -0.653180    0.042639
H       0.654743    1.702759    0.381093
H       1.297397   -0.039484   -1.687458
H       1.984107   -0.808017   -0.267204
H       1.324560   -2.469349   -2.195769
H      -0.622620   -3.729484   -1.378643
H      -2.110382   -2.747257    0.335817
H      -0.635928   -0.015560    2.195101
H      -2.317149   -0.129185   -0.255957
