17

C      -0.312287    1.513558   -0.138973
C       0.079535    0.056511   -0.031778
O       1.370820   -0.213175   -0.703755
C       1.918847   -0.682960    0.461068
N       3.087886   -1.048628    0.748135
C       0.670152   -0.511435    1.290097
C       0.896430    0.348977    2.537440
O       1.755474   -0.325801    3.429941
H       0.466391    2.171480    0.254042
H      -0.488419    1.778728   -1.185539
H      -1.237522    1.695665    0.417667
H      -0.686207   -0.588068   -0.472856
H       3.721819   -0.986641   -0.049565
H       0.225467   -1.463372    1.590358
H       1.301002    1.332409    2.252393
H      -0.046576    0.521432    3.067089
H       2.543267   -0.580115    2.925822
