16

C      -0.013903    1.439178    0.116742
C       0.009298   -0.045494   -0.053704
N      -0.048429   -0.627622   -1.178103
C      -0.025256   -2.049440   -1.242312
N      -0.087820   -2.673277   -2.357983
C       0.065507   -2.743061    0.027569
C       0.136661   -2.037725    1.171059
N       0.306758   -2.510676    2.451386
O       0.103278   -0.670502    1.170934
H       0.895356    1.777398    0.624087
H      -0.088954    1.912852   -0.860659
H      -0.863666    1.737724    0.739239
H      -0.149660   -1.985228   -3.110774
H       0.082497   -3.824448    0.038749
H       0.081806   -3.486075    2.575985
H      -0.073679   -1.914594    3.172526
