11

N       0.027385    1.278286    0.156605
C      -0.053297   -0.065673    0.053729
N      -1.132184   -0.796650    0.008383
N      -0.579587   -2.064308   -0.004972
N      -0.996154   -3.339779   -0.054601
N       0.112386   -4.033862   -0.062013
N       1.246839   -3.252448   -0.022434
C       0.751025   -2.046384    0.012402
O       1.147478   -0.747674    0.054532
H       0.878937    1.708193   -0.169307
H      -0.825626    1.782071   -0.030745
