19

C       0.383224    1.524964    0.238204
N      -0.119746    0.234896   -0.220758
C       0.681867   -0.420933   -1.234569
C       2.108842   -0.580421   -0.834853
N       3.207037   -0.678895   -0.486913
C       0.126903   -1.803842   -1.603004
O      -0.640059   -2.474685   -0.608793
C      -1.287256   -2.128268   -1.850803
C      -2.447543   -1.168606   -1.825252
H       1.402280    1.488987    0.652868
H       0.382837    2.234977   -0.596351
H      -0.291692    1.911563    1.005699
H      -0.267116   -0.411338    0.546857
H       0.683537    0.202101   -2.140530
H       0.874699   -2.429624   -2.092427
H      -1.447047   -3.003524   -2.484749
H      -2.229047   -0.298545   -1.207276
H      -2.671024   -0.838217   -2.845917
H      -3.339108   -1.675513   -1.441279
