21

C      -0.249900    1.500619    0.121975
C       0.101546    0.015442   -0.019845
C       0.900238   -0.529768    1.143341
C       2.286716    0.049678    1.437309
C       2.819451   -0.849936    2.588312
C       1.915317   -2.082669    2.548090
C       0.424460   -1.823672    2.648471
O       0.137171   -0.447335    2.413019
C       1.040137   -2.065263    1.309852
H       0.644306    2.131569    0.109852
H      -0.896906    1.825475   -0.698026
H      -0.776798    1.678353    1.063644
H      -0.819364   -0.572785   -0.104352
H       0.672957   -0.157049   -0.941632
H       2.918568   -0.031527    0.544561
H       2.233717    1.103827    1.721373
H       3.866926   -1.124846    2.435315
H       2.752263   -0.339327    3.553510
H       2.268184   -3.036985    2.924119
H      -0.271182   -2.394284    3.253201
H       0.915326   -2.836868    0.562504
