22

C      -0.327768    1.242364    0.310580
C       0.206303   -0.144625    0.029701
C       1.547726   -0.351992   -0.600093
C       1.352337   -0.756259    0.845210
C       2.045194    0.072711    1.887385
O       2.576246    1.139812    1.601553
N       2.060128   -0.413347    3.173212
C       2.830768    0.293258    4.182807
C       1.353810   -1.594226    3.632357
H       0.473465    1.912527    0.628140
H      -0.790131    1.660038   -0.590578
H      -1.091452    1.222795    1.096362
H      -0.556967   -0.869913   -0.242510
H       1.674928   -1.144381   -1.329185
H       2.167828    0.525342   -0.744818
H       1.273877   -1.818483    1.038126
H       2.176788    0.680266    4.974938
H       3.565431   -0.378298    4.645239
H       3.343650    1.124385    3.702681
H       0.529419   -1.845884    2.966742
H       2.015296   -2.467788    3.724078
H       0.927393   -1.395928    4.622374
