13

N      -0.023036    1.357501    0.111330
C      -0.026668    0.001691    0.040441
C      -1.214017   -0.764932    0.027004
N      -1.154377   -2.075557   -0.000064
C       0.082186   -2.611603   -0.012050
C       0.139817   -4.104468   -0.037044
O       1.148017   -4.760796   -0.052012
N       1.224499   -1.921642   -0.008318
N       1.175060   -0.604600    0.013918
H       0.863149    1.814212   -0.039229
H      -0.854827    1.875832   -0.112974
H      -2.194779   -0.291601    0.037938
H      -0.874175   -4.557704   -0.040109
