13

O      -0.001909    0.019809   -0.267552
C      -0.013208    1.180494    0.039343
C      -1.279373    2.028425    0.272300
C      -0.768376    3.316645    0.869297
O      -0.011720    3.110080    2.068750
C       0.706926    3.336211    0.849611
C       1.235794    2.061782    0.238741
H      -1.781914    2.194944   -0.688822
H      -1.978238    1.492997    0.920883
H      -1.364279    4.224673    0.841433
H       1.277585    4.259712    0.806181
H       1.965658    1.545303    0.868266
H       1.707930    2.241223   -0.735384
