15

C      -0.020052    1.504939    0.047547
C       0.008773    0.016589   -0.035126
C      -0.004051   -0.859375   -1.113222
N      -0.044571   -0.887669   -2.491404
N      -0.029017   -2.117752   -2.865526
N       0.021742   -2.939395   -1.761572
C       0.039680   -2.191782   -0.620078
C       0.079770   -2.154525    0.755995
N       0.059427   -0.799702    1.066365
H       0.877662    1.911925    0.529374
H      -0.072314    1.919949   -0.960956
H      -0.890102    1.872963    0.605299
H       0.039174   -3.933046   -1.906550
H       0.118581   -2.905650    1.524437
H       0.079795   -0.451434    2.010933
