21

C       0.058233    1.608101   -0.089485
C       0.098191    0.078402   -0.075709
C       0.610295   -0.496178    1.259346
C       0.668970   -1.995108    1.286156
C      -0.256228   -2.878630    1.811129
N       0.194379   -4.135162    1.565017
C      -0.385774   -5.387794    1.996237
N       1.373350   -4.133940    0.914221
C       1.658904   -2.845494    0.741431
H       1.054621    2.032517    0.078153
H      -0.308478    1.989269   -1.047645
H      -0.600095    1.995278    0.696598
H      -0.902404   -0.324581   -0.275163
H       0.737644   -0.285641   -0.889209
H       1.608198   -0.085316    1.460800
H      -0.033530   -0.137385    2.072135
H      -1.185062   -2.707690    2.333860
H      -1.463324   -5.263885    2.123260
H      -0.194775   -6.142998    1.232482
H       0.049827   -5.724870    2.943289
H       2.567688   -2.565079    0.227117
