17

C      -0.060476    1.554315    0.033830
C       0.035879    0.044432    0.039110
C      -1.191381   -0.666165   -0.506394
C       1.329109   -0.668762   -0.256861
O       2.537621    0.070985   -0.116369
C       2.606695    0.394784    1.202555
N       1.690577   -0.009585    1.986132
C       0.747851   -0.721533    1.155123
H       0.799525    2.034751    0.502427
H      -0.137201    1.928979   -0.992869
H      -0.955059    1.877487    0.577295
H      -1.397205   -0.355226   -1.536940
H      -1.065193   -1.753683   -0.505239
H      -2.074463   -0.433753    0.099120
H       1.413314   -1.471665   -0.979500
H       3.470473    0.987066    1.479004
H       0.263148   -1.580987    1.604402
