19

O      -0.146271    0.354155    0.784035
C       0.382135    0.820317   -0.193238
C       1.307486    1.991021   -0.141189
O       2.213277    2.128561   -1.243928
C       1.202804    3.116859   -1.105555
C       0.162387    3.237601   -2.198001
C       0.660124    4.079431   -3.357129
C       1.549427    3.464979   -4.408568
C       0.130175    3.847984   -4.748931
H       0.227975    0.398971   -1.209774
H       1.721808    2.192408    0.845923
H       1.578848    4.073025   -0.733038
H      -0.112775    2.241568   -2.558390
H      -0.744217    3.685379   -1.769395
H       0.874948    5.113005   -3.095883
H       2.356628    4.063324   -4.815668
H       1.785017    2.410894   -4.311231
H      -0.592461    3.050664   -4.889980
H      -0.033352    4.709584   -5.386519
