14

O       0.035602    1.355197    0.275183
C       0.007970   -0.027090   -0.016661
C      -1.422627   -0.459051   -0.005348
C      -2.596437    0.261467   -0.065484
N      -3.681025   -0.568907   -0.044989
C      -3.184884   -1.789499    0.025584
N      -1.810912   -1.770399    0.053978
C      -3.912523   -3.005479    0.069650
N      -4.464461   -4.022897    0.107327
H       0.915052    1.688412    0.075562
H       0.454981   -0.238354   -1.002715
H       0.580827   -0.612852    0.723363
H      -2.699592    1.333013   -0.114082
H      -1.212417   -2.578460    0.118819
