18

C      -0.366895    1.422127   -0.035402
C       0.198387    0.055188   -0.379438
O       1.375123   -0.223417   -0.210607
N      -0.702045   -0.844243   -0.874121
C      -0.398087   -2.249293   -1.096337
C       0.363403   -2.516239   -2.435184
N       1.806575   -2.275838   -2.417800
C       0.102639   -3.898938   -2.863317
N      -0.125777   -4.991542   -3.161453
H       0.336781    2.186721   -0.369124
H      -1.348293    1.612799   -0.477155
H      -0.452633    1.504276    1.052682
H      -1.659232   -0.552751   -0.978952
H       0.213352   -2.624451   -0.269616
H      -1.346722   -2.792555   -1.096869
H      -0.083768   -1.856045   -3.190985
H       1.974616   -1.415274   -1.898921
H       2.258234   -3.009591   -1.878100
