18

C       0.078907    1.420280   -0.088966
N      -0.019798   -0.030865    0.063533
C       0.834453   -0.527679    1.141639
C      -1.352967   -0.519982    0.107878
C      -1.859982   -1.342688   -0.880619
O      -1.268202   -1.815146   -1.989267
N      -3.133437   -1.630766   -0.555316
N      -3.515149   -1.037911    0.614254
C      -2.439163   -0.369766    1.010488
H       1.118313    1.696801   -0.297374
H      -0.542221    1.743616   -0.927490
H      -0.243954    1.971623    0.811084
H       0.565530   -0.115816    2.129746
H       0.761092   -1.616364    1.195052
H       1.876364   -0.257551    0.937390
H      -0.369699   -1.448816   -1.962333
H      -3.784383   -2.204619   -1.062586
H      -2.479037    0.197051    1.929872
