20

C      -0.118515    1.580123    0.232553
C       0.003658    0.067010   -0.064537
C      -1.311125   -0.577054    0.019597
C      -2.400977   -1.075923    0.107010
N       0.662464   -0.277651   -1.335735
C      -0.023961    0.192446   -2.532829
C       2.083485    0.004980   -1.365881
C       2.802748   -0.917378   -2.343176
O       3.807115   -0.628429   -2.937295
H       0.866065    2.056290    0.206440
H      -0.766960    2.074434   -0.494913
H      -0.548706    1.733216    1.225752
H       0.632184   -0.374348    0.720725
H      -3.357156   -1.531750    0.185036
H       0.037651    1.284904   -2.678664
H       0.417871   -0.281515   -3.415611
H      -1.076526   -0.095759   -2.487442
H       2.352143    1.047226   -1.610014
H       2.511507   -0.214634   -0.377020
H       2.317972   -1.915430   -2.440725
