17

C      -0.244406    1.478348    0.049250
C      -0.005270   -0.037568   -0.023146
O       0.661734   -0.411159   -1.225757
C       0.700867   -0.525218    1.164220
C       1.316192   -0.909362    2.134708
C       2.002760   -1.345718    3.223255
C       2.612812   -1.725758    4.198469
C       3.356364   -2.240793    5.344740
O       2.950890   -3.539570    5.749466
H       0.708080    2.013793    0.115665
H      -0.769733    1.802443   -0.852720
H      -0.842852    1.737770    0.927104
H      -0.976921   -0.543621   -0.082975
H       1.568323   -0.088812   -1.167197
H       4.434465   -2.205367    5.117581
H       3.197740   -1.593552    6.214967
H       2.983002   -4.109652    4.973828
