21

C       0.172198    1.470584   -0.324506
C       0.113568    0.029289   -0.127037
C       0.068919   -1.164182    0.034668
C       0.013414   -2.595276    0.240138
C      -0.110502   -3.141512    1.685603
O      -1.217934   -3.981779    1.327798
C      -1.332126   -3.378142    0.005258
C      -2.584184   -2.517603   -0.083346
C      -1.280575   -4.441899   -1.079364
H       1.058425    1.758974   -0.900634
H      -0.707676    1.833521   -0.867399
H       0.211677    2.002650    0.632522
H       0.830989   -3.085522   -0.297524
H       0.743876   -3.715686    2.060670
H      -0.386111   -2.378503    2.424119
H      -2.596763   -1.759233    0.703006
H      -2.639155   -2.005950   -1.049335
H      -3.471311   -3.148918    0.028299
H      -2.164399   -5.085764   -1.023279
H      -1.255684   -3.979943   -2.072232
H      -0.393414   -5.070596   -0.962784
