19

C      -0.236271    1.532428    0.036352
C       0.045851    0.029976    0.022326
O      -1.145529   -0.718165    0.241196
C       0.753140   -0.448542   -1.268810
C       2.230139    0.016020   -1.326823
C       2.903945   -0.370790   -2.560035
C       3.438358   -0.702844   -3.583555
C       0.682354   -1.968101   -1.323847
O       0.066069   -2.594455   -2.143346
H       0.681377    2.126770   -0.003341
H      -0.859824    1.817134   -0.819344
H      -0.772362    1.793427    0.952450
H       0.681231   -0.224453    0.880594
H      -1.718132   -0.609347   -0.527194
H       0.214677   -0.070069   -2.145494
H       2.274624    1.104706   -1.211784
H       2.769949   -0.402645   -0.466107
H       3.914172   -0.997542   -4.485987
H       1.262541   -2.478029   -0.519177
