20

C      -0.312471    1.368781    0.137916
C      -0.121574   -0.122725   -0.148559
C       0.916864   -0.433988   -1.250640
O       2.173943    0.125507   -0.928998
C       1.012202   -1.943928   -1.534003
C      -0.048275   -2.192967   -2.631969
N      -0.132092   -0.896711   -3.293615
C       0.454296    0.119268   -2.611876
O       0.624950    1.265699   -2.983189
H       0.632508    1.818575    0.454818
H      -0.661984    1.909766   -0.745353
H      -1.040516    1.514705    0.941369
H       0.225122   -0.630298    0.759949
H      -1.081138   -0.583624   -0.418614
H       2.200071    0.980222   -1.384212
H       2.012642   -2.153088   -1.921589
H       0.846441   -2.562865   -0.649639
H       0.256808   -2.973921   -3.335022
H      -1.016304   -2.487652   -2.205624
H      -0.544609   -0.752848   -4.201605
