16

C       0.001125    1.548693   -0.052763
O       1.435455    1.519505    0.060057
C       1.424434    0.114831    0.372491
C      -0.086001    0.000366    0.029729
C      -0.989323   -0.596501    1.040663
N      -1.084893   -0.315766    2.303611
C      -2.077384   -1.161041    2.778990
C      -2.536744   -1.921322    1.758582
O      -1.846850   -1.570479    0.632389
H      -0.471148    2.054708    0.797571
H      -0.332468    2.005169   -0.991012
H       2.111412   -0.456941   -0.260830
H       1.644030   -0.076245    1.429569
H      -0.268587   -0.467849   -0.937663
H      -2.382543   -1.156784    3.813227
H      -3.279687   -2.692128    1.649814
