20

C      -0.082683    1.492475    0.012981
C       0.017857   -0.026755    0.002428
C       0.802346   -0.604002   -1.203265
C       1.286495   -2.007207   -0.721791
C       0.815088   -2.098922    0.741104
C       0.774329   -0.641252    1.198445
O      -0.529838   -2.642035    0.795489
C      -1.488753   -1.780588    0.379247
N      -1.355074   -0.586789   -0.019482
H       0.910762    1.952496    0.038737
H      -0.608972    1.844241   -0.879416
H      -0.647141    1.834579    0.885600
H       0.165127   -0.657915   -2.088756
H       1.651944    0.043211   -1.445465
H       0.874678   -2.832318   -1.307394
H       2.376811   -2.088591   -0.767142
H       1.410770   -2.770610    1.360060
H       1.789906   -0.239421    1.280968
H       0.259353   -0.501438    2.152468
H      -2.467836   -2.254255    0.426513
