21

C      -0.118199    1.441236   -0.180925
C       1.273943    0.915103    0.066238
C       0.097574   -0.035147    0.056398
C      -0.350391   -0.712470    1.302101
C      -0.338787   -2.210607    1.461286
C      -1.644136   -1.466144    1.593418
C      -1.799449   -0.695183    2.932245
C      -0.634981   -0.846655    3.872167
C      -0.499831    0.041579    2.663312
H      -0.588703    2.025522    0.602133
H      -0.377667    1.761619   -1.184113
H       1.973044    0.881638   -0.762057
H       1.732705    1.134299    1.024745
H       0.012810   -0.663448   -0.826664
H      -0.236519   -2.745189    0.520570
H       0.138393   -2.722894    2.289758
H      -2.477167   -1.650941    0.926610
H      -2.745939   -0.279789    3.253316
H      -0.746347   -0.298688    4.803730
H      -0.088157   -1.775420    3.988694
H      -0.302279    1.101314    2.763089
