17

O      -0.254375    0.550489    0.935323
C      -0.004574    1.194800   -0.036244
O      -0.877881    1.392593   -1.060452
C      -1.469533    2.697970   -1.214103
C      -0.448785    3.836892   -1.133573
C       0.783190    3.493274   -1.943760
C       2.174301    3.693597   -1.380563
C       1.579471    2.319534   -1.453093
O       1.225700    1.743141   -0.209487
H      -1.940061    2.660473   -2.199911
H      -2.256806    2.820600   -0.460516
H      -0.919841    4.759500   -1.489628
H      -0.173522    4.013353   -0.088668
H       0.669835    3.569290   -3.021508
H       2.983348    3.937430   -2.059324
H       2.257758    4.133193   -0.392666
H       1.973647    1.591188   -2.154088
