13

O      -0.066738   -0.056621    0.004469
C       0.010507    1.140962    0.008990
O      -1.200797    1.870648    0.029561
C      -1.222228    3.209921    0.036158
C      -0.114527    3.974896    0.024083
C       1.166343    3.314817    0.002876
C       1.209924    1.949593   -0.004151
C       2.356181    4.094789   -0.010259
C       3.349405    4.774711   -0.021180
H      -2.233988    3.598576    0.052294
H      -0.187173    5.052720    0.030175
H       2.146338    1.408532   -0.019924
H       4.232359    5.365569   -0.031205
