17

C       0.402466    1.405182    0.713205
C      -0.050767    0.124362    0.046450
C       0.462397   -0.267213   -1.274988
O       0.948954   -0.887039   -0.077554
C      -1.394174   -0.382814    0.519752
C      -2.652805    0.404926    0.100864
C      -3.021806   -0.895094   -0.613678
O      -3.911886   -1.320011   -1.273749
O      -1.875230   -1.548949   -0.228021
H       1.405798    1.667742    0.371191
H      -0.272655    2.237174    0.487717
H       0.436255    1.282834    1.801485
H      -0.128426   -0.914656   -1.917415
H       1.170481    0.387271   -1.781634
H      -1.347595   -0.633859    1.583792
H      -3.339627    0.697259    0.895991
H      -2.486367    1.247351   -0.573154
