21

C      -0.191518    1.537346   -0.012219
C       0.081551    0.032762    0.016911
C       0.743096   -0.475999   -1.263301
C       2.182385   -0.137756   -1.556218
C       1.799715   -1.562241   -1.226417
C       2.238849   -2.178450    0.102077
C       1.269534   -1.862505    1.263404
C       0.873968   -0.395612    1.253735
O       1.157563    0.368826    2.147528
H       0.742835    2.099215   -0.095224
H      -0.823858    1.796537   -0.867044
H      -0.690575    1.860534    0.904163
H      -0.878791   -0.500045    0.110842
H       0.075456   -0.484892   -2.120661
H       2.465650    0.108263   -2.573575
H       2.734009    0.412970   -0.798518
H       1.790062   -2.250997   -2.065344
H       2.318662   -3.264821   -0.002303
H       3.241144   -1.822731    0.366304
H       0.358487   -2.461503    1.137525
H       1.713944   -2.105916    2.230963
