20

C      -1.812028    0.132607    1.760807
N      -0.903295   -0.532868    0.829730
C      -0.921612   -0.245057   -0.587973
C      -1.869702    0.733619   -1.253052
O      -3.106917    0.103264   -1.566155
C       0.259804    0.173675    0.264915
C       0.565355    1.617445    0.533719
C       2.045043    1.951091    0.603516
O      -0.284284    2.470542    0.703233
H      -1.982713    1.196380    1.572818
H      -2.765587   -0.406488    1.737612
H      -1.402364    0.028108    2.770165
H      -0.755501   -1.132239   -1.200187
H      -2.003403    1.638605   -0.654969
H      -1.441537    1.035885   -2.214935
H      -3.570098   -0.060552   -0.738760
H       1.148893   -0.452066    0.212191
H       2.558190    1.619005   -0.306229
H       2.174901    3.025677    0.733249
H       2.511737    1.419503    1.441126
