18

O      -0.051176    1.355164   -0.184312
C       0.019567   -0.008047    0.000723
C       1.172649   -0.879509   -0.571686
C      -0.257471   -1.067098   -1.009500
N      -0.432457   -2.057406    0.148292
C       1.092536   -2.151855    0.260427
C       1.450582   -2.039824    1.741527
C       0.306633   -1.154986    2.324455
C      -0.574383   -0.875036    1.108381
H       0.679358    1.771152    0.286622
H       1.994877   -0.424423   -1.111900
H      -0.764361   -1.100619   -1.962615
H       1.467986   -3.047745   -0.239452
H       1.465069   -3.025927    2.214664
H       2.441997   -1.597897    1.878738
H      -0.249646   -1.686788    3.101458
H       0.674391   -0.225815    2.770852
H      -1.624305   -0.662237    1.320285
