23

C      -0.005363    1.578270    0.071632
C      -0.014281    0.043690    0.013658
C       0.534814   -0.435134   -1.350271
C       0.282543   -1.885625   -1.685343
C       0.640753   -2.938352   -0.950491
C       1.360836   -2.887337    0.374328
C       0.673979   -2.028179    1.453393
O       1.297343   -2.235185    2.720107
C       0.764241   -0.521424    1.211730
H       1.015727    1.968446   -0.016938
H      -0.597528    2.010467   -0.741665
H      -0.417474    1.941646    1.018564
H      -1.057323   -0.293679    0.088962
H       0.096238    0.187504   -2.137313
H       1.616122   -0.228318   -1.375783
H      -0.234070   -2.074857   -2.623808
H       0.395341   -3.929451   -1.324789
H       1.455243   -3.907839    0.765975
H       2.388165   -2.516051    0.249868
H      -0.388892   -2.318001    1.502598
H       1.263207   -3.176553    2.917475
H       1.825916   -0.251863    1.118870
H       0.407359   -0.037957    2.128372
