15

N      -0.041487   -1.132585   -0.037731
C      -0.008024    0.021328   -0.089511
C       0.063665    1.479124   -0.147986
C       1.446892    2.021237    0.277718
C       1.500784    3.529389    0.205024
C       2.772363    4.228874   -0.095107
N       1.680936    4.213324   -1.087681
H      -0.172680    1.801982   -1.168151
H      -0.717910    1.894131    0.498803
H       1.662605    1.686020    1.298615
H       2.220830    1.588044   -0.366653
H       0.785210    4.036646    0.851350
H       2.978821    5.200157    0.344500
H       3.653775    3.620134   -0.281057
H       1.894490    3.530760   -1.812574
