17

O       0.003405    0.051223    0.099312
C      -0.014940    1.241574   -0.008462
C      -1.192142    2.233824   -0.005499
C      -0.811149    3.046564    1.266437
C       0.765460    3.068822    1.244293
C       1.133377    2.266699   -0.038183
C       0.677777    3.128450   -1.211857
O      -0.062801    2.426765   -2.222132
C      -0.794227    3.107640   -1.191172
H      -2.188077    1.795688   -0.018326
H      -1.235432    4.053866    1.241197
H      -1.187346    2.553330    2.165932
H       1.160271    4.087686    1.207619
H       1.180532    2.586694    2.132645
H       2.140539    1.856867   -0.079153
H       1.262436    3.978622   -1.550533
H      -1.411969    3.940817   -1.512939
