16

N       0.040515    1.376742    0.004460
C      -0.079780   -0.006953   -0.001658
C      -1.172711   -0.815999    0.008112
N      -2.518465   -0.458832    0.075741
C      -0.708324   -2.183739    0.002555
N      -1.556622   -3.317531   -0.081141
C       0.647514   -2.094396   -0.000848
O       1.578633   -3.071770   -0.036038
O       1.078683   -0.819236   -0.007137
H       0.554750    1.744933   -0.789595
H       0.450706    1.753670    0.853942
H      -2.675919    0.496423   -0.218854
H      -3.100043   -1.104047   -0.446080
H      -1.945021   -3.563835    0.825419
H      -1.044885   -4.125255   -0.418400
H       2.434166   -2.658490   -0.198481
