19

C      -0.082626    1.521923   -0.097638
C       0.028579    0.009995   -0.000836
O       0.638751   -0.451208   -1.195321
C       0.584469   -1.855382   -1.341836
C       0.940419   -2.597645   -0.085368
C       1.070042   -1.986287    1.087137
C       0.823424   -0.494622    1.235369
C       2.081460    0.218439    1.458855
C       3.120908    0.789323    1.656886
H       0.908631    1.968748   -0.203041
H      -0.686317    1.794853   -0.966921
H      -0.555264    1.931603    0.800259
H      -0.980283   -0.428999    0.085050
H      -0.417713   -2.170857   -1.689309
H       1.287910   -2.106386   -2.144689
H       1.087217   -3.670588   -0.177786
H       1.362062   -2.530319    1.979953
H       0.183730   -0.333631    2.115690
H       4.040176    1.293445    1.825027
