19

C       0.232398    1.542866   -0.052911
C       0.082147    0.027682   -0.037164
O       0.707243   -0.492842   -1.203560
C       0.679362   -1.907232   -1.277107
C       1.510679   -2.524422   -0.169782
C       2.725598   -1.783220    0.274558
C       1.478800   -1.788537    1.162119
C       0.611326   -0.586828    1.270978
O       0.251442   -0.142538    2.340198
H       1.290218    1.820220   -0.082865
H      -0.260724    1.963004   -0.932549
H      -0.214396    1.958840    0.851641
H      -0.992885   -0.231506   -0.055493
H      -0.358778   -2.277352   -1.230505
H       1.085191   -2.166404   -2.260468
H       1.516679   -3.609535   -0.132380
H       3.570543   -2.343699    0.656836
H       2.974992   -0.866300   -0.244647
H       1.546786   -2.353395    2.084903
