15

N       0.007602    1.404188    0.169504
C       0.029125   -0.032593    0.061755
C      -0.444747   -0.742979    1.294123
O      -0.820929    0.039580    2.363485
C      -1.352147   -0.731741    0.039816
N      -2.493589    0.144015    0.090191
C      -1.466926   -1.957678   -0.701005
N      -1.561374   -2.939138   -1.309633
H       0.701066    1.827363   -0.433280
H      -0.917706    1.742510   -0.092456
H       0.824494   -0.471215   -0.530211
H      -0.020329   -1.703182    1.569940
H      -0.519589    0.939401    2.135544
H      -3.082419    0.028813   -0.725564
H      -3.044950   -0.030798    0.924135
