23

C      -0.116339    1.577401    0.070384
C       0.001999    0.037953    0.003116
C      -1.418255   -0.562567   -0.006574
C       0.756002   -0.401970   -1.275455
C       2.277156   -0.263726   -1.148800
C       2.809407   -1.144368   -0.012942
O       4.184246   -0.889112    0.271214
C       1.958262   -0.996577    1.223940
C       0.739250   -0.458753    1.230252
H       0.863660    2.060923    0.021820
H      -0.725643    1.954221   -0.758905
H      -0.592624    1.892592    1.005021
H      -1.967641   -0.239734   -0.898183
H      -1.384760   -1.656728   -0.006168
H      -1.989370   -0.242188    0.871826
H       0.515288   -1.453356   -1.481326
H       0.388444    0.171648   -2.134297
H       2.775533   -0.527794   -2.086703
H       2.546414    0.778785   -0.932209
H       2.800933   -2.194783   -0.336383
H       4.239428    0.003592    0.630618
H       2.412808   -1.351964    2.146206
H       0.201572   -0.363311    2.173291
