21

C      -0.788014    0.673329    1.287457
N      -0.230664   -0.678389    1.060737
H      -0.090952   -1.229456    1.934615
H      -0.836604   -1.244385    0.465865
C       1.239187   -0.786908    0.375006
C       1.709606   -2.143849    0.571020
C       2.035819   -2.586026    1.953843
O       0.833421   -2.584720    2.813605
C       0.140414   -3.827499    2.749561
N       1.486315   -2.982495   -0.461615
O       1.685867   -4.212246   -0.276248
H      -0.871754    1.192843    0.330973
H      -1.770671    0.611266    1.759666
H      -0.107228    1.224636    1.938136
H       1.077733   -0.540868   -0.676072
H       1.784294    0.005569    0.899672
H       2.449184   -3.598208    1.917714
H       2.728453   -1.912904    2.470928
H      -0.031632   -4.142220    1.713454
H       0.718889   -4.615015    3.250807
H      -0.811482   -3.703860    3.275471
