15

O       0.185685    1.338738   -0.071147
C       0.035563   -0.050696   -0.071524
C      -1.412154   -0.461073   -0.029675
N      -2.337207    0.423095    0.002833
C      -3.644155   -0.048972    0.040997
C      -3.946599   -1.360346    0.044385
C      -2.889213   -2.347775    0.007018
N      -3.050615   -3.601119    0.006664
O      -1.588352   -1.793527   -0.030435
H      -0.711173    1.705181   -0.040150
H       0.490246   -0.500622   -0.968427
H       0.542461   -0.507598    0.793429
H      -4.412909    0.715496    0.068288
H      -4.962856   -1.728735    0.074301
H      -2.157130   -4.092151   -0.023074
