20

C      -0.119137    1.554398    0.013950
C       0.034736    0.034265   -0.000458
N       0.776380   -0.420414   -1.208694
C       1.882691   -1.301132   -0.815333
C       2.837501   -0.459991    0.033869
O       2.139344   -0.013394    1.206306
C       0.812560   -0.495959    1.218453
O       0.778312   -1.909498    1.236426
C       1.383723   -2.460088    0.058673
H       0.860819    2.036089    0.057947
H      -0.627169    1.891089   -0.894276
H      -0.707856    1.882236    0.878295
H      -0.959863   -0.429918    0.040085
H       0.151007   -0.913444   -1.835921
H       2.392806   -1.673070   -1.708407
H       3.707372   -1.051182    0.347318
H       3.183584    0.412333   -0.531917
H       0.371979   -0.166270    2.160952
H       0.642198   -3.066019   -0.481073
H       2.206923   -3.121479    0.362873
