16

N       0.353838    0.601170    0.973579
C      -0.000953   -0.069302   -0.149712
O       0.623256   -0.040401   -1.192642
C      -1.267732   -0.932907   -0.036162
O      -1.026475   -2.240312    0.570595
C      -2.188665   -2.124325    1.409234
C      -1.866297   -1.538681    2.787349
O      -1.993502   -0.180461    2.266024
C      -2.410358   -0.665969    0.965582
H       1.171423    1.187666    0.935212
H      -0.260778    0.611296    1.775791
H      -1.645288   -1.060028   -1.057259
H      -2.880334   -2.962139    1.314225
H      -2.616296   -1.722630    3.564989
H      -0.861316   -1.753872    3.161542
H      -3.327968   -0.190823    0.618511
