19

C      -0.033912    1.620911    0.024364
C       0.099575    0.103713   -0.023348
C       0.847365   -0.603556   -1.156074
C       1.318051   -1.716083   -0.237156
C       2.330773   -0.735706   -0.747515
O       3.318344   -1.014777   -1.669203
C       2.501709   -0.078674    0.621200
C       1.086637   -0.666677    0.918109
O       0.719515   -1.052020    2.198703
H       0.921422    2.126964   -0.142710
H      -0.729255    1.973027   -0.745596
H      -0.428159    1.952504    0.992521
H      -0.884810   -0.365318    0.094599
H       0.561942   -0.708172   -2.195791
H       1.236192   -2.790737   -0.291513
H       3.455651   -0.231070   -2.212960
H       3.256654   -0.608905    1.208306
H       2.652797    1.004395    0.695987
H       0.795364   -0.287639    2.780562
