22

C      -0.663674   -0.067042    0.039985
C      -0.036124   -1.080511   -0.921784
C       1.079390   -0.449361   -1.759441
O       1.589003   -1.280515   -2.790689
C       2.503293   -2.269164   -2.381933
C       1.876401   -3.551217   -1.857489
N       2.322731   -4.103505   -0.805422
O       0.882424   -3.965090   -2.679693
C       0.197199   -5.158985   -2.333154
H       0.080487    0.336032    0.736103
H      -1.101162    0.778774   -0.502253
H      -1.457808   -0.525947    0.636073
H       0.364021   -1.926824   -0.352791
H      -0.794208   -1.481344   -1.604360
H       0.691861    0.437759   -2.274096
H       1.900487   -0.116219   -1.103255
H       3.087200   -2.527123   -3.274065
H       3.192757   -1.904086   -1.610640
H       1.859643   -4.986410   -0.591863
H       0.872869   -6.023154   -2.330487
H      -0.281726   -5.073731   -1.350136
H      -0.567513   -5.301952   -3.097256
