19

C      -0.143073    1.556081   -0.243683
C      -0.023222    0.034417   -0.109483
C      -1.344622   -0.616640    0.248678
O      -2.335773   -0.468728   -0.832983
C      -2.460606   -1.834705   -0.964844
N      -3.135774   -2.520017   -1.769679
C      -1.506311   -2.162473    0.167029
C      -0.320769   -3.065071   -0.152126
H       0.815574    2.002258   -0.522963
H      -0.877467    1.816643   -1.010982
H      -0.464437    2.013593    0.698393
H       0.349441   -0.392742   -1.046834
H       0.706733   -0.222400    0.669029
H      -1.754276   -0.178162    1.165426
H      -3.664960   -1.926263   -2.410806
H      -2.047977   -2.553590    1.033704
H       0.237810   -2.715931   -1.024284
H       0.367996   -3.127889    0.696158
H      -0.680539   -4.073629   -0.373405
