18

C      -0.028244    1.639612   -0.038011
C       1.585990    1.666751   -0.070249
O       2.440298    1.581210    1.136960
C       1.701677    0.317870    1.404898
C       1.289793   -1.245028    1.696170
N      -0.099033   -0.635752    1.501279
C       0.454947    0.539448    2.257993
C      -0.052046    0.040613    0.079748
C       1.431809    0.176380   -0.119176
H      -0.619891    2.276787    0.621233
H      -0.314153    1.866714   -1.070322
H       2.042325    2.330609   -0.802928
H       1.605712   -1.990314    0.965047
H       1.373651   -1.609476    2.718647
H       0.633582    0.269443    3.302260
H      -0.120760    1.458762    2.229239
H      -0.723409   -0.479383   -0.601298
H       2.106908   -0.500979   -0.639533
