18

O       0.265485    1.417206   -0.119884
C       0.161098    0.016690   -0.056059
C      -1.271222   -0.524544    0.013057
C      -2.135331   -0.105733   -1.179288
O      -2.275008    1.306250   -1.285566
C      -1.311533   -2.057907    0.264503
N      -2.009422   -2.226453    1.549659
C      -2.284354   -1.057657    1.949860
O      -1.929043    0.018522    1.205782
H      -0.389448    1.723654   -0.762278
H       0.649201   -0.478059   -0.915982
H       0.696734   -0.303749    0.844903
H      -1.668481   -0.444238   -2.110093
H      -3.118907   -0.591050   -1.099041
H      -2.649331    1.606193   -0.447446
H      -1.847918   -2.597459   -0.524763
H      -0.306782   -2.491578    0.325935
H      -2.795877   -0.813924    2.874576
