19

C      -0.104579    1.551266   -0.020666
N      -0.027703    0.094947    0.048653
C       0.685229   -0.389212    1.228678
C       2.205610   -0.152961    1.128422
C       2.915948   -0.734592    2.259724
C       3.472556   -1.226779    3.204276
C      -1.347012   -0.516409   -0.053252
C      -1.967880   -0.271733   -1.361462
N      -2.471012   -0.077628   -2.382812
H       0.898772    1.980581   -0.047914
H      -0.615731    1.849218   -0.939452
H      -0.645962    1.989995    0.838194
H       0.305876    0.064727    2.162553
H       0.518846   -1.467645    1.310608
H       2.563228   -0.587182    0.187522
H       2.423629    0.919939    1.079096
H       3.979903   -1.656025    4.032422
H      -1.249010   -1.599889    0.072868
H      -2.053996   -0.167046    0.724733
