15

O       0.308744    0.786031    1.029566
C      -0.067145    0.211389   -0.206086
C      -1.437012   -0.411123   -0.086683
C      -2.161843   -0.381857    1.101174
C      -3.420545   -0.978582    1.133181
N      -3.989515   -1.585674    0.089651
C      -3.284179   -1.607799   -1.046358
C      -2.022290   -1.043537   -1.184876
H       1.181601    1.174937    0.928305
H      -0.089225    0.966075   -1.009615
H       0.649066   -0.565028   -0.522154
H      -1.750028    0.096882    1.979758
H      -4.001746   -0.965580    2.052804
H      -3.754385   -2.104262   -1.892297
H      -1.504916   -1.098157   -2.138421
