15

C      -0.051505    1.554243   -0.121282
C       0.017175    0.036496   -0.017053
C       1.328059   -0.687100   -0.180901
C       0.680236   -0.671847    1.186782
C       1.292608    0.117386    2.287700
O       1.216823   -0.191265    3.449440
C      -1.157412   -0.637618   -0.519291
N      -2.104034   -1.162298   -0.927338
H       0.887191    2.016019    0.190465
H      -0.242061    1.846417   -1.157695
H      -0.857270    1.955686    0.499278
H       1.345532   -1.629043   -0.714819
H       2.203182   -0.061575   -0.326202
H       0.196256   -1.581330    1.523454
H       1.860024    1.019980    1.968963
