20

O       0.019934    1.356068   -0.518218
C       0.002430    0.210793    0.317670
C      -1.334484   -0.490373    0.240037
N      -1.627454   -1.081593   -1.083178
C      -1.510237   -1.962222    0.094544
C      -0.388945   -2.951512    0.090134
C      -0.075914   -3.748602    1.345572
C      -0.692035   -4.424029    0.147873
O      -2.042702   -4.787103    0.186879
H      -0.250576    1.039733   -1.388961
H       0.812375   -0.484470    0.055265
H       0.188448    0.565506    1.336999
H      -2.147322    0.048023    0.725430
H      -2.603429   -0.947836   -1.331104
H      -2.436491   -2.366063    0.495084
H       0.452297   -2.672179   -0.533945
H       0.959596   -3.949502    1.597619
H      -0.730421   -3.590861    2.197229
H      -0.061401   -5.085144   -0.445909
H      -2.131067   -5.537241    0.783678
