16

O      -0.314746    1.072883    1.202868
C      -0.000584    1.410711    0.095511
C       1.392543    1.929285   -0.268848
N       1.381324    2.839668   -1.394100
C       0.846683    4.178589   -1.210623
C       1.811811    5.095895   -0.466466
O       1.462425    5.977617    0.269567
C       1.848495    2.466557   -2.629132
O       1.842250    3.170331   -3.612882
H      -0.700647    1.350395   -0.769628
H       1.844016    2.379499    0.622105
H       2.001051    1.054385   -0.533426
H       0.696152    4.597121   -2.213107
H      -0.113653    4.165542   -0.685502
H       2.885800    4.889437   -0.679271
H       2.239660    1.430946   -2.625111
