22

C       0.038624    1.572261   -0.013207
C      -0.016472    0.045277    0.116596
C      -1.429103   -0.543336    0.022387
O      -2.268815   -0.065276    1.056940
C      -2.023863   -0.552097   -1.426771
C      -1.674723   -2.067127   -1.544159
C      -1.456188   -2.082624   -0.030223
C      -0.822192   -3.041982    0.896690
N      -2.290525   -2.881944    0.858538
H       1.072848    1.927507    0.011198
H      -0.407733    1.916518   -0.952238
H      -0.483834    2.070861    0.811936
H       0.602507   -0.410738   -0.665158
H       0.419436   -0.256959    1.076244
H      -2.256898    0.896948    1.048927
H      -3.102080   -0.382149   -1.394836
H      -1.571168    0.123689   -2.156581
H      -2.466256   -2.726308   -1.904457
H      -0.762724   -2.255011   -2.118324
H      -0.456831   -3.997822    0.529298
H      -0.275365   -2.647180    1.750348
H      -2.596175   -2.290945    1.629891
