17

C       0.125027    1.444900    0.088754
C       0.016804   -0.028638   -0.067704
N      -0.311014   -0.705916   -1.120938
C      -0.255096   -2.036707   -0.719893
C       0.110638   -2.103066    0.580729
O       0.291516   -0.802035    1.020389
N       0.307796   -3.173200    1.439998
C       1.371409   -3.083077    2.453464
C      -0.056359   -3.021260    2.858030
H       1.138870    1.740211    0.379293
H      -0.123927    1.917099   -0.861872
H      -0.558979    1.813778    0.860487
H      -0.479763   -2.851619   -1.388023
H       1.942363   -3.996016    2.592536
H       1.943030   -2.161010    2.498404
H      -0.443867   -2.057668    3.174742
H      -0.540841   -3.888504    3.296154
