19

C       0.151856    1.395907    0.215982
O       0.011928   -0.002403    0.140432
C       0.585947   -0.537563   -1.042679
C       0.471757   -2.016291   -1.045354
C      -0.417030   -2.889470   -1.603827
C      -1.617206   -2.569362   -2.439901
C       0.028551   -4.199632   -1.215209
C       1.139563   -4.017657   -0.457585
O       1.428099   -2.699591   -0.343360
H       1.210117    1.703653    0.215655
H      -0.350428    1.906369   -0.622267
H      -0.309452    1.719681    1.151983
H       0.079580   -0.128281   -1.931506
H       1.647779   -0.249218   -1.109644
H      -1.576151   -3.078689   -3.409347
H      -2.541728   -2.890730   -1.946803
H      -1.703154   -1.496295   -2.628724
H      -0.427201   -5.143375   -1.473457
H       1.813143   -4.691126    0.046896
