23

C       0.974695    1.496366    0.577660
N       0.635909    0.126296    0.221875
C       0.469882   -0.257493   -1.186629
C       0.618670    0.705199   -2.321311
C       0.054504    0.344372   -3.647437
N      -0.580151    1.398225   -2.840147
C       1.620660   -0.784117   -0.375345
C       3.045423   -0.341479   -0.662326
C       1.534781   -2.203283    0.158137
H       1.666481    2.014669   -0.100368
H       0.052205    2.084145    0.619586
H       1.419672    1.499106    1.577969
H      -0.375628   -0.934174   -1.339464
H       1.494353    1.345513   -2.310980
H       0.537414    0.689677   -4.557167
H      -0.445163   -0.617136   -3.739638
H      -1.408694    1.023069   -2.381992
H       3.123082    0.681020   -1.032883
H       3.653522   -0.413285    0.246908
H       3.498973   -0.999906   -1.410862
H       1.936306   -2.922048   -0.565366
H       2.112731   -2.302316    1.084555
H       0.498382   -2.468694    0.379278
