13

F      -0.002034    0.104466   -0.151581
C       0.008906    1.436517    0.004132
F       1.278789    1.839189    0.045902
F      -0.560457    1.972942   -1.089458
C      -0.749412    1.854658    1.246560
C      -2.142048    1.220155    1.439736
O      -1.678974    0.573716    2.665412
C      -0.414401    1.103908    2.526527
N       0.614402    0.992342    3.226635
H      -0.705475    2.940745    1.334795
H      -2.959750    1.913300    1.643081
H      -2.434420    0.480525    0.692504
H       0.459951    0.386434    4.034018
