19

C      -0.030590    1.594963   -0.148965
C      -0.026877    0.084209    0.099938
N      -1.354006   -0.520155    0.068677
C      -2.032510   -0.724618   -1.202170
C      -1.963222   -2.203481   -1.654056
C      -2.565788   -2.395666   -2.968992
N      -3.040810   -2.516820   -4.015437
C      -1.988029   -0.920817    1.206538
O      -3.081673   -1.448475    1.234308
H       0.991778    1.983995   -0.119349
H      -0.452783    1.842476   -1.127677
H      -0.619878    2.111259    0.614374
H       0.611007   -0.419831   -0.637053
H       0.406973   -0.128998    1.082131
H      -3.081740   -0.439524   -1.095347
H      -1.574937   -0.079591   -1.954846
H      -0.921634   -2.541348   -1.688462
H      -2.489720   -2.816313   -0.916758
H      -1.391592   -0.713766    2.116262
