18

O      -0.007233    1.463589    0.207300
C       0.030206    0.063101    0.048779
C       0.347597   -0.731863    1.360843
C      -1.098957   -1.259429    1.358540
C      -1.408903   -0.482852    0.100629
N      -1.459693   -1.923728    0.120259
C      -0.555682   -2.776243   -0.631470
C      -0.816936   -4.235140   -0.286134
O       0.006426   -5.106929   -0.379023
H       0.897970    1.785122    0.268189
H       0.612739   -0.219497   -0.839598
H       1.155566   -1.470032    1.348665
H       0.513921   -0.025969    2.177455
H      -1.714199   -1.439770    2.233057
H      -2.288232    0.082631   -0.188438
H      -0.785251   -2.657649   -1.700343
H       0.517598   -2.580606   -0.507094
H      -1.858043   -4.433662    0.051757
