20

O      -0.036644    0.753490   -1.434420
C      -0.085133    1.302382   -0.359946
C      -1.396215    1.892934    0.173144
N      -1.194073    2.526191    1.471467
C      -0.192237    3.578611    1.377800
C       0.346651    4.050163    2.752510
C       1.616562    3.176835    2.547545
C       1.194061    2.925836    1.069353
C       1.108811    1.476154    0.563923
H      -1.782833    2.571063   -0.610542
H      -2.117289    1.072911    0.265324
H      -2.069348    2.889384    1.833780
H      -0.487640    4.386750    0.686659
H       0.557917    5.122050    2.773887
H      -0.282356    3.799280    3.609872
H       2.576377    3.676187    2.697009
H       1.608666    2.262177    3.145564
H       1.771768    3.534207    0.368635
H       0.941461    0.809753    1.419592
H       2.013086    1.146349    0.048006
