19

C       0.098736    1.421555   -0.111117
C      -0.042139   -0.084791   -0.003330
C      -0.083875   -0.932954   -1.356053
C      -0.905004   -1.877628   -0.471155
C      -0.156705   -2.770089    0.221200
C       0.131064   -2.185772    1.542116
C      -0.797944   -1.042334    1.851347
C       0.576012   -0.689447    1.313121
C      -1.376966   -0.744497    0.463937
H       1.130863    1.708087   -0.345425
H      -0.546246    1.815082   -0.904131
H      -0.178398    1.911546    0.828246
H      -0.626017   -0.352754   -2.113260
H       0.840638   -1.330269   -1.780425
H       0.566085   -3.422793   -0.260756
H       0.631905   -2.703960    2.353070
H      -1.238989   -0.863738    2.822349
H       1.438147   -0.299836    1.839416
H      -2.341433   -0.267451    0.298288
