12

N      -0.097321    1.429857   -0.023742
C      -0.066009    0.038744    0.014669
C      -1.067743   -0.896441    0.136178
N      -0.624201   -2.221095    0.135537
C       0.657477   -2.074365    0.012254
O       1.749802   -2.845194   -0.066142
N       2.850935   -1.930923   -0.196455
N       2.421030   -0.747791   -0.192310
N       1.082525   -0.781231   -0.066779
H       0.393748    1.869228    0.746880
H       0.241268    1.820486   -0.895965
H      -2.119849   -0.671509    0.226767
