19

C      -0.028267    1.382851    0.021577
O      -0.003377   -0.025088   -0.006497
C       0.641837   -0.541171   -1.147001
C       0.579288   -2.077831   -1.071995
C      -0.876079   -2.588337   -1.076190
C       1.360354   -2.662653   -2.154871
C       2.002870   -3.141213   -3.062625
C       2.721224   -3.680836   -4.084779
C       3.359863   -4.158910   -4.991463
H       0.987365    1.808476    0.028765
H      -0.568309    1.798551   -0.843453
H      -0.543412    1.681796    0.937448
H       0.149640   -0.192481   -2.070443
H       1.691503   -0.209698   -1.186384
H       1.042290   -2.363024   -0.117107
H      -0.906546   -3.673014   -0.948691
H      -1.428813   -2.115599   -0.262167
H      -1.366019   -2.342213   -2.023245
H       3.919190   -4.580450   -5.789164
