15

C       0.068833    1.532735   -0.181694
C       0.014506    0.024505    0.042184
N       0.499269   -0.704376   -1.144319
C       1.432411   -1.460783   -0.750858
O       1.785118   -1.491758    0.557006
C       0.907140   -0.534072    1.220913
C       1.703976    0.437920    1.952370
C       2.342559    1.241677    2.576576
H       1.094341    1.864311   -0.363426
H      -0.537952    1.788875   -1.053721
H      -0.317554    2.072561    0.687201
H      -1.025829   -0.269045    0.220672
H       2.014039   -2.126180   -1.379603
H       0.298309   -1.107186    1.927310
H       2.911576    1.951462    3.125141
