15

C      -0.108814    1.464108    0.087995
C       1.296367    0.912789   -0.065841
C       0.112817   -0.020159   -0.050756
O      -0.076707   -0.823820    1.098130
C      -0.615239   -2.088015    0.710336
C      -0.750390   -2.014776   -0.786722
C      -0.330049   -0.825894   -1.208329
H      -0.401040    1.811761    1.072545
H      -0.554019    2.005945   -0.739916
H       1.824052    1.072914   -1.000260
H       1.924293    0.899422    0.817974
H       0.060282   -2.895270    1.035092
H      -1.580834   -2.251290    1.214742
H      -1.134887   -2.826275   -1.390327
H      -0.298364   -0.461056   -2.226555
