21

C      -0.042299    1.511006   -0.003036
C       0.009524   -0.004060   -0.017938
C      -1.270493   -0.663279   -0.516385
C      -1.343239   -2.197535   -0.368449
C      -0.741203   -2.691289    0.921056
C       0.167059   -1.991354    1.612703
C       0.706363   -0.693524    1.154543
C       1.357183   -0.639445   -0.233288
O       1.540446   -1.799651   -0.982915
H       0.895425    1.940298    0.364357
H      -0.218192    1.908870   -1.009628
H      -0.849379    1.872529    0.645203
H      -2.098516   -0.220201    0.052835
H      -1.439162   -0.390971   -1.564967
H      -2.389750   -2.517655   -0.434462
H      -0.832038   -2.668093   -1.216918
H      -1.074275   -3.656370    1.293901
H       0.566280   -2.391693    2.541055
H       1.155997   -0.068101    1.919884
H       2.199732    0.040866   -0.341920
H       1.348682   -2.552778   -0.407867
