14

C      -0.035269    1.543107    0.006183
C      -0.004907    0.002819    0.018010
C       0.738479   -0.528179    1.258519
O      -1.341472   -0.513786   -0.010729
C       0.651455   -0.488484   -1.200099
C       1.226722   -0.867908   -2.183619
H       0.975524    1.958360   -0.031255
H      -0.594855    1.897806   -0.861886
H      -0.523646    1.912139    0.915750
H       0.250812   -0.161204    2.169312
H       0.719442   -1.620010    1.265060
H       1.779146   -0.192892    1.269600
H      -1.780767   -0.198022    0.787059
H       1.721800   -1.210760   -3.058409
