21

C       0.278382    1.033002   -0.643634
C      -0.089721   -0.430691   -0.382762
C      -1.497923   -0.595568    0.188980
C      -2.664121   -0.439596   -0.832802
C      -2.882834   -2.001207   -0.818807
C      -2.370676   -2.636611   -2.075167
O      -1.262015   -3.103129   -2.231300
C      -1.958952   -2.073132    0.438778
O      -1.018364   -3.099346    0.545841
H       1.289761    1.119714   -1.052513
H      -0.407535    1.500486   -1.359078
H       0.239797    1.620872    0.280301
H       0.010351   -1.006892   -1.309797
H       0.620679   -0.872970    0.325327
H      -1.598192    0.042737    1.073322
H      -3.533408    0.093814   -0.444342
H      -2.398414   -0.005020   -1.800566
H      -3.923898   -2.311240   -0.681371
H      -3.090122   -2.631808   -2.924144
H      -2.576461   -2.122531    1.341484
H      -0.665833   -3.252599   -0.342776
