16

C       0.053353    1.569371    0.010233
C      -0.034465    0.044414    0.004360
C      -1.467071   -0.448917    0.014149
O      -2.437938    0.261540    0.024571
N      -1.631504   -1.861389    0.008748
C      -0.700266   -2.882901   -0.003661
N      -1.283034   -4.043569   -0.004234
N      -2.659921   -3.816083    0.007736
C      -2.840857   -2.530120    0.015120
H       1.099094    1.886418    0.002838
H      -0.444793    1.992563   -0.864947
H      -0.430009    1.984923    0.897285
H       0.466441   -0.376630   -0.876803
H       0.480975   -0.384222    0.873388
H       0.364467   -2.716391   -0.011410
H      -3.781970   -2.006028    0.025072
