21

C      -0.119080    1.095195   -0.426517
C       1.274587    0.782450    0.057672
C       0.191259   -0.255381    0.173693
C      -0.371521   -0.609579    1.529214
C      -1.772909   -1.289701    1.477314
C      -1.552792   -2.686353    2.035036
C      -0.551045   -3.577996    1.319548
C      -0.126234   -2.726331    2.488548
O       0.512926   -1.510086    2.223893
H      -0.715971    1.787143    0.159344
H      -0.297179    1.154409   -1.494267
H       2.055080    0.629392   -0.678976
H       1.614363    1.259015    0.971169
H       0.245227   -1.088980   -0.521728
H      -0.416008    0.312040    2.126672
H      -2.487771   -0.747005    2.102689
H      -2.168750   -1.290702    0.456821
H      -2.348502   -3.149227    2.606717
H      -0.638173   -4.647991    1.478766
H      -0.210092   -3.295946    0.328843
H       0.203249   -3.178318    3.417686
