13

O       0.066335   -0.006508    0.002440
C      -0.027281    1.186546    0.009762
N      -1.147143    1.992483    0.029613
C      -0.763478    3.342731    0.031256
C       0.593556    3.304210    0.012034
N       1.105399    4.560759    0.010974
C       0.019414    5.430675    0.030361
C      -1.159989    4.704680    0.043546
O       1.103490    2.045624   -0.001645
H      -2.068837    1.594498    0.040694
H       2.074547    4.823476   -0.001151
H       0.179729    6.495206    0.033378
H      -2.153634    5.121390    0.059607
