20

C      -0.263299    1.498718   -0.071201
C       0.124882    0.013734    0.046943
C       0.798087   -0.528247   -1.177667
C       2.044765   -0.986175   -1.296619
C       2.399304   -1.412216   -2.698385
C       1.022837   -1.473801   -3.401195
C       0.101052   -0.557125   -2.543802
C      -1.285853   -1.020721   -2.489475
N      -2.381277   -1.386967   -2.435631
H       0.616368    2.121827   -0.261480
H      -0.978009    1.662657   -0.883838
H      -0.733159    1.846426    0.853229
H       0.788198   -0.127309    0.906870
H      -0.782790   -0.570378    0.248718
H       2.757948   -1.016584   -0.479431
H       3.066247   -0.678334   -3.172543
H       2.923933   -2.372922   -2.736336
H       1.049320   -1.165984   -4.448355
H       0.635033   -2.495046   -3.365622
H       0.076469    0.459890   -2.961071
