21

C      -0.386318    1.441980    0.242370
C      -0.034405   -0.015835    0.054070
C       0.596014   -0.570754   -1.221143
C       1.053127    0.314418   -2.374407
C       2.558149    0.541888   -2.273814
O       2.938896    1.439880   -3.305552
C       2.892882    1.142398   -0.905610
O       2.481351    0.358597    0.206619
C       1.390309   -0.511481    0.060986
H       0.355631    2.115057   -0.190977
H      -1.354662    1.676861   -0.213722
H      -0.452801    1.682306    1.308674
H      -0.744108   -0.693750    0.523045
H       0.259238   -1.559365   -1.517282
H       0.814981   -0.152963   -3.333461
H       0.558716    1.292376   -2.371630
H       3.074701   -0.425146   -2.382712
H       3.896726    1.535473   -3.285329
H       3.978278    1.266818   -0.799721
H       2.443698    2.146942   -0.866450
H       1.600293   -1.441287    0.582162
