23

C       0.177884    1.539988    0.139662
C       0.045918    0.053491    0.018860
C      -1.072963   -0.678514   -0.084683
C      -2.493920   -0.193705   -0.114715
C      -3.119748   -0.255753   -1.510916
O      -4.473371    0.156921   -1.394464
C      -0.758767   -2.164046   -0.116227
C       0.764676   -2.211989   -0.370082
C       1.282004   -0.823145    0.068247
H       0.784667    1.948758   -0.678941
H      -0.786992    2.052550    0.127532
H       0.693625    1.813669    1.069784
H      -3.113956   -0.806569    0.552875
H      -2.573441    0.837079    0.244224
H      -2.555885    0.400428   -2.192418
H      -3.049437   -1.279587   -1.910700
H      -4.873562    0.124622   -2.268142
H      -1.029171   -2.625337    0.845900
H      -1.327150   -2.709493   -0.879007
H       1.259136   -3.037119    0.149137
H       0.950528   -2.347096   -1.440579
H       2.088615   -0.450756   -0.575453
H       1.694392   -0.840004    1.088664
