15

O       0.129854    1.430074    0.131474
C       0.073529    0.029132   -0.071318
C      -1.353980   -0.438675    0.057346
C      -1.977270   -1.142593    1.214829
N      -1.897846   -1.876584   -0.044502
C      -3.069778   -1.375220   -0.855868
C      -2.428923    0.024777   -0.869065
O      -2.531951    1.004923   -1.557537
H      -0.445540    1.833284   -0.531301
H       0.464172   -0.256239   -1.060065
H       0.713311   -0.434723    0.685069
H      -1.284902   -1.496351    1.973745
H      -2.950218   -0.834665    1.592989
H      -3.084135   -1.821222   -1.853530
H      -4.041603   -1.512422   -0.373644
