22

C      -0.110974    1.526165    0.053773
C       0.040517    0.003262   -0.058304
C       0.666153   -0.382173   -1.406202
C       0.833385   -0.546561    1.150914
C       0.795319   -2.075454    1.282203
C       1.741950   -2.496634    2.398605
O       3.066340   -1.983078    2.179681
C       3.136637   -0.772876    1.575572
N       2.211999   -0.048339    1.110087
H       0.871841    2.005994    0.060330
H      -0.685219    1.926005   -0.788181
H      -0.628926    1.808311    0.977244
H      -0.961204   -0.446394   -0.000123
H       1.688733    0.000723   -1.474958
H       0.699218   -1.465839   -1.556791
H       0.087120    0.043423   -2.231917
H       0.362738   -0.120296    2.050179
H      -0.217337   -2.430564    1.501513
H       1.114189   -2.545872    0.346181
H       1.388833   -2.128050    3.370505
H       1.852277   -3.581779    2.464162
H       4.176554   -0.453742    1.521903
