17

C      -0.035178    1.588902   -0.009128
C       1.483447    1.755433   -0.045291
O       1.737054    1.021539   -1.256183
C       1.408530   -0.238878   -0.692937
O       2.416040   -0.392670    0.264355
C       2.149914    0.793068    1.069908
C       1.164011    0.291630    2.096584
C       0.088836   -0.261564    1.526837
C      -0.009914    0.020179    0.047915
H      -0.554810    2.021066    0.845194
H      -0.451398    1.982876   -0.938373
H       1.903704    2.757679   -0.100348
H       1.440014   -1.039076   -1.429369
H       3.090564    1.171975    1.466391
H       1.397269    0.270234    3.154005
H      -0.695463   -0.784675    2.061942
H      -0.840572   -0.473108   -0.454573
