18

N       0.000708    1.201894   -0.199493
C      -0.109573   -0.021172    0.085157
O      -1.000826   -0.787238   -0.586014
C      -1.027434   -2.149842   -0.233171
C      -1.781320   -2.571242    0.998214
C      -2.347427   -2.846863   -0.384057
C      -3.547635   -2.095579   -0.856747
C      -4.283243   -2.496519   -2.061630
O      -4.797017   -2.788143   -0.760017
H       0.707841    1.633717    0.391825
H       0.451480   -0.575814    0.848423
H      -0.125510   -2.688946   -0.513273
H      -1.403281   -3.399522    1.586486
H      -2.259362   -1.783017    1.570290
H      -2.305519   -3.874177   -0.732661
H      -3.588846   -1.048817   -0.560701
H      -4.836489   -1.751063   -2.630869
H      -3.945954   -3.359669   -2.634718
