21

C       0.199886    1.507798   -0.108960
C      -0.013056   -0.015411   -0.028302
C      -1.505850   -0.345350    0.022016
C       0.722733   -0.696459   -1.198934
O       2.090948   -0.694695   -0.833595
C       2.158652   -0.990690    0.557542
C       0.768199   -0.675689    1.166257
C       0.828105    0.191351    2.400646
O       0.132640    0.042842    3.373186
H       1.261250    1.761181   -0.182064
H      -0.299620    1.904547   -0.999038
H      -0.221306    2.024934    0.758921
H      -2.029827    0.087391   -0.837249
H      -1.676167   -1.426974    0.013210
H      -1.965212    0.058025    0.930006
H       0.349351   -1.724873   -1.341732
H       0.626413   -0.156377   -2.145470
H       2.414501   -2.047169    0.716702
H       2.961352   -0.382187    0.991550
H       0.248980   -1.595422    1.448651
H       1.578535    1.014326    2.355601
