18

C      -0.367654    1.462703   -0.020707
C       0.021755   -0.007718   -0.033359
C       1.270066   -0.340101   -0.915422
C       2.058594   -0.544873    0.357354
N       3.277670   -0.622580    0.682500
O       4.105001   -0.582113   -0.453742
C       0.820189   -0.509487    1.247729
C       0.826295    0.297659    2.449688
C       0.814825    0.975507    3.442524
H       0.498733    2.100199    0.184401
H      -0.782037    1.755283   -0.991207
H      -1.116857    1.667938    0.749367
H      -0.850757   -0.630253   -0.243664
H       1.173851   -1.249784   -1.516623
H       1.633420    0.461841   -1.563984
H       4.984908   -0.622271   -0.063680
H       0.512980   -1.533899    1.494659
H       0.818321    1.570614    4.321857
