13

O      -0.780528    0.758404    0.554161
C       0.143639    0.857953   -0.198961
C       1.323022    1.843929    0.024378
C       1.378825    2.428759    1.469983
N       2.567132    1.810135    2.065657
C       3.099841    1.104907    1.166732
O       2.526461    1.044171   -0.077509
C       1.311395    2.845482   -1.041016
N       1.249319    3.635814   -1.881951
H       0.259461    0.235307   -1.107233
H       1.473992    3.516823    1.474356
H       0.473684    2.153739    2.017339
H       4.001732    0.512126    1.260069
