18

N      -0.112794   -1.165991   -0.224212
C      -0.056924   -0.016632   -0.115307
C      -0.012999    1.434005    0.015889
C      -0.620316    1.975756    1.365925
C       0.559817    2.773283    1.967153
C       1.658257    1.770399    2.354170
O       2.159855    1.299452    1.083240
C       1.437991    2.004649    0.079632
C       1.201112    3.385607    0.703296
H      -0.539646    1.862854   -0.843266
H      -1.478115    2.621551    1.163295
H      -0.955892    1.166384    2.017437
H       0.280424    3.460296    2.766179
H       2.477223    2.239154    2.913894
H       1.278959    0.921193    2.933529
H       1.990821    1.942387   -0.857267
H       0.521075    4.021677    0.130761
H       2.135794    3.918514    0.891526
