14

C      -0.598334    1.389390    0.079852
C      -0.033550    0.011810   -0.016065
N       0.125421   -0.582208   -1.144953
C       0.481403   -1.895560   -1.285819
N       0.105747   -2.917200   -0.580204
C      -0.519937   -2.735960    0.626695
N      -0.339661   -1.807285    1.503280
C       0.425425   -0.681200    1.254969
O       1.288413   -0.231496    1.968035
H       0.123151    2.037976    0.588152
H      -0.833133    1.782638   -0.909501
H      -1.502564    1.379351    0.699782
H       1.050319   -2.102398   -2.191346
H      -1.205120   -3.539722    0.895651
