19

C      -0.030862    1.554609   -0.063872
C       0.010196    0.024967    0.045979
C       0.743076   -0.422974    1.311831
O      -1.314529   -0.503816    0.161494
C       0.684181   -0.570695   -1.206710
C       0.608230   -2.091292   -1.441589
O      -0.138926   -1.868358   -2.686556
C      -0.155673   -0.517900   -2.488652
O      -0.718634    0.308957   -3.137130
H       0.978019    1.979150   -0.069312
H      -0.527785    1.862895   -0.989284
H      -0.575610    1.969891    0.788673
H       0.256807    0.004676    2.192714
H       0.718817   -1.512138    1.409605
H       1.787010   -0.096842    1.295721
H      -1.872358   -0.060891   -0.488732
H       1.682968   -0.149843   -1.350556
H       1.545303   -2.612395   -1.642258
H      -0.011356   -2.637704   -0.729831
