21

C      -0.101390    1.512228   -0.009234
C      -0.010636   -0.010456   -0.001819
O      -1.284112   -0.600782   -0.181023
C       1.139939   -0.570094   -0.891383
O       1.540736    0.276992   -1.943070
C       2.033929   -0.700385    0.377738
C       0.748954   -0.586693    1.205115
C       0.559300   -0.277721    2.658459
C       0.196067   -1.641414    2.115528
H       0.871329    1.974516    0.174318
H      -0.451267    1.872160   -0.983209
H      -0.798871    1.844909    0.765299
H      -1.757446   -0.094888   -0.849838
H       0.839963   -1.561345   -1.256213
H       2.253851   -0.152649   -2.425347
H       2.623877   -1.614312    0.484605
H       2.690336    0.169248    0.485764
H       1.444363   -0.188378    3.280469
H      -0.250967    0.388337    2.938646
H      -0.855412   -1.883522    2.011194
H       0.835879   -2.480913    2.369653
