20

C      -1.016365    1.169812   -0.006148
C      -0.086501   -0.034046   -0.027656
C       1.179518    0.013375   -0.931273
C       2.027065   -0.614719    0.213490
C       3.243175    0.196122    0.701112
C       2.629637    1.145456    1.707117
C       1.351834    0.865543    1.970970
C       0.843892   -0.323118    1.198702
H      -0.467851    2.088363    0.228338
H      -1.499622    1.308806   -0.979942
H      -1.808454    1.052662    0.742545
H      -0.665103   -0.937864   -0.249821
H       1.130888   -0.540854   -1.872135
H       1.491353    1.039155   -1.153708
H       2.247551   -1.670903    0.049664
H       4.010984   -0.434501    1.171037
H       3.742751    0.722679   -0.123155
H       3.195796    1.949631    2.166204
H       0.734362    1.411999    2.676601
H       0.497364   -1.124401    1.861412
