20

C       0.136021    1.144009   -0.547254
C       0.298883   -0.195202    0.131116
N       1.646020   -0.560465    0.611748
C       0.551419   -0.400159    1.589307
C       0.712538    0.765999    2.547028
C      -0.054892   -1.612214    2.248910
C       0.137823   -2.998100    1.765955
N       0.784589   -2.556260    3.016561
H       0.760129    1.909630   -0.082719
H       0.427976    1.073227   -1.600705
H      -0.907674    1.474991   -0.510753
H      -0.272185   -0.997411   -0.336111
H       1.840822   -1.540155    0.419777
H       1.216695    1.607266    2.070068
H      -0.261894    1.104242    2.916874
H       1.310608    0.464423    3.413703
H      -0.993897   -1.392716    2.755637
H      -0.656886   -3.727762    1.893659
H       0.757683   -3.174671    0.889494
H       1.764767   -2.351716    2.827581
