17

C       0.333766    1.463476   -0.046363
C       0.000689    0.009253    0.127415
N      -0.207804   -0.597069    1.232269
O      -0.088343    0.231324    2.348465
C      -0.100877   -0.815972   -1.113291
N       1.149017   -1.334050   -1.678482
C       0.145103   -2.290783   -1.167500
C       0.559963   -3.096038    0.025146
O       0.037135   -4.140988    0.319266
H       1.337493    1.559283   -0.475705
H      -0.362571    1.930954   -0.752013
H       0.296769    1.998170    0.900977
H      -0.290997   -0.372325    3.071368
H      -0.841776   -0.444523   -1.822451
H       1.126288   -1.308488   -2.694530
H      -0.463415   -2.850511   -1.874316
H       1.414574   -2.673079    0.587463
