16

C       0.223260    1.504444   -0.360225
C      -0.099206    0.102452    0.076578
C      -0.240092   -0.180419    1.551347
C       1.128288   -0.224871    2.255112
N       1.931943   -1.234895    1.814970
O       1.447589    0.554848    3.128953
N      -0.241493   -0.905072   -0.699850
O      -0.070234   -0.566063   -2.051311
H       0.776609    2.029583    0.422681
H       0.796319    1.505779   -1.288042
H      -0.702957    2.063515   -0.541408
H      -0.818416    0.604612    2.043142
H      -0.745535   -1.140610    1.685554
H       1.690214   -1.758139    0.989553
H       2.876697   -1.277164    2.160127
H      -0.213511   -1.410582   -2.491096
