16

O      -0.755658    0.846474    0.632144
C       0.186046    0.773097   -0.114752
C       1.412955    1.670229   -0.016691
N       2.640506    0.902717   -0.321219
C       3.447821    1.745680   -1.195246
C       2.797387    2.201810   -2.483508
O       1.380042    2.054037   -2.397594
C       1.411843    2.753273   -1.110922
C       2.891872    3.147792   -1.312478
H       0.241960    0.038956   -0.942567
H       1.419097    2.140238    0.976188
H       3.149358    0.694255    0.529210
H       4.516220    1.566538   -1.198604
H       3.252468    2.196175   -3.467078
H       0.633887    3.511529   -1.030365
H       3.371077    4.102847   -1.148454
