18

C      -0.379386    1.533946    0.126255
C       0.107372    0.087168   -0.053493
C       0.841517   -0.428056    1.140206
C       2.127432   -0.837675    1.225651
N       3.161067   -0.938380    0.304477
O       2.346748   -1.223675    2.568646
C       1.159551   -1.004994    3.160392
N       1.091085   -1.229212    4.515063
N       0.222695   -0.544365    2.390536
H       0.465714    2.217574    0.256264
H      -0.952685    1.863401   -0.745876
H      -1.017038    1.616427    1.010562
H      -0.758951   -0.559515   -0.243662
H       0.765528    0.009818   -0.924372
H       3.966705   -0.369747    0.544947
H       3.476192   -1.892024    0.156929
H       1.691194   -1.968596    4.850528
H       0.140275   -1.303745    4.846130
