15

N       0.182044   -1.130957    0.745234
C       0.115156   -0.036239    0.381096
C       0.017935    1.360294   -0.059118
C      -0.787640    2.250506    0.938298
C       0.276239    2.975147    1.796334
C       1.514104    2.907891    0.946978
C       1.391641    2.040750   -0.065414
C       2.383003    1.731570   -1.033912
N       3.166874    1.473536   -1.846459
H      -0.435618    1.360400   -1.055238
H      -1.355022    2.982243    0.357904
H      -1.495624    1.667162    1.527684
H      -0.010839    4.003531    2.037074
H       0.451212    2.469744    2.755765
H       2.411155    3.479767    1.151761
