13

N       0.074533   -3.666397    0.328652
C       0.052585   -2.511221    0.207999
C       0.024803   -1.154029    0.062681
C      -0.006052    0.046372   -0.066357
C      -0.021110    1.491241   -0.234058
C       1.376825    2.094201   -0.265116
C       1.618973    3.458986    0.214137
O       1.993515    2.320241    0.994349
H      -0.543272    1.739809   -1.167773
H      -0.587935    1.950191    0.584635
H       2.037137    1.680317   -1.027094
H       2.442803    4.037875   -0.198906
H       0.790457    4.044254    0.611017
