21

C      -0.411543    1.501804   -0.613684
C      -0.615363   -0.009667   -0.678488
C      -1.339462   -0.577975    0.531631
O      -1.588031    0.080997    1.511560
C      -1.730307   -2.077937    0.454825
C      -2.180789   -2.610692    1.823901
C      -2.753865   -2.255401   -0.575199
C      -3.620891   -2.377055   -1.403016
C      -4.666790   -2.538054   -2.403375
H       0.148564    1.853491   -1.484564
H      -1.371642    2.024381   -0.588253
H       0.134934    1.783429    0.289583
H      -1.166544   -0.309182   -1.577391
H       0.349899   -0.533125   -0.746491
H      -0.826387   -2.618680    0.135719
H      -2.442564   -3.668738    1.749323
H      -1.381229   -2.491487    2.559460
H      -3.050130   -2.054781    2.179250
H      -5.447958   -3.221367   -2.052463
H      -5.146039   -1.580692   -2.636015
H      -4.266421   -2.944946   -3.338488
