25

C       0.066485    1.474452   -0.156263
C       0.065119   -0.044398    0.064582
C       0.772009   -0.412986    1.376136
C      -1.354341   -0.607830    0.026302
C      -2.166092   -0.531054   -1.300210
C      -2.722261   -1.949209   -1.001180
C      -2.860490   -2.921872   -2.152433
O      -3.259163   -4.178758   -1.622036
C      -1.562337   -2.149775    0.010770
H       1.086822    1.871973   -0.173039
H      -0.413105    1.743656   -1.102919
H      -0.474997    1.986234    0.648656
H       0.623990   -0.507670   -0.762884
H       0.256338    0.032245    2.235705
H       0.796567   -1.496778    1.528105
H       1.805025   -0.049450    1.385649
H      -1.939491   -0.162776    0.841937
H      -2.883525    0.284116   -1.422526
H      -1.499282   -0.539400   -2.171337
H      -3.680716   -1.887587   -0.475041
H      -3.600354   -2.540044   -2.876377
H      -1.896274   -3.001615   -2.682676
H      -3.322614   -4.806014   -2.348018
H      -0.713565   -2.661625   -0.458361
H      -1.790107   -2.651546    0.953260
