20

C      -0.022883    1.540906    0.014430
C      -0.013980    0.006785   -0.007831
C      -1.439682   -0.560034   -0.013946
C       0.814324   -0.535164   -1.224579
C       1.948466   -1.304599   -0.595759
C       1.858068   -1.261931    0.732491
N       0.748908   -0.523071    1.163301
C       0.438300   -0.332382    2.477255
O       1.076726   -0.774252    3.411920
H       0.998662    1.930829    0.042061
H      -0.513482    1.925669   -0.885523
H      -0.562292    1.930726    0.883148
H      -1.968554   -0.233428   -0.915207
H      -1.418636   -1.653576   -0.005420
H      -2.014624   -0.221382    0.853438
H       0.192167   -1.167350   -1.870443
H       1.171057    0.290337   -1.853154
H       2.719715   -1.814919   -1.153809
H       2.490074   -1.696587    1.492336
H      -0.473559    0.278745    2.610297
