16

O      -0.093141    0.605962    1.223253
C      -0.058062    1.167741    0.143172
N       1.067878    1.400107   -0.580023
C       2.387904    1.037345   -0.091326
C       3.333252    2.148269   -0.162454
C       4.111973    3.059045   -0.246805
C      -1.316537    1.696485   -0.503536
C      -1.480446    3.141091   -0.738859
O      -1.201256    2.248242   -1.818504
H       0.961385    1.828869   -1.487330
H       2.247623    0.704347    0.942307
H       2.785082    0.180293   -0.652079
H       4.803716    3.862732   -0.306157
H      -2.197950    1.087921   -0.316921
H      -2.480117    3.570429   -0.735447
H      -0.671128    3.817523   -0.471283
