20

C      -0.432756    1.477614   -0.072899
C      -0.005428    0.013430   -0.063619
C       1.296235   -0.288100   -0.886651
C       1.987902   -0.582493    0.424544
N       3.179900   -0.695976    0.841284
O       4.111349   -0.597835   -0.207064
C       0.713808   -0.518637    1.238941
C       0.798765    0.313069    2.519947
O       1.693110   -0.281149    3.440930
H       0.403605    2.146784    0.154711
H      -0.814710    1.754984   -1.061162
H      -1.225532    1.671183    0.657041
H      -0.851670   -0.614741   -0.352186
H       1.227462   -1.157583   -1.547612
H       1.715919    0.544045   -1.459776
H       4.951231   -0.711859    0.250783
H       0.360931   -1.521610    1.505627
H       1.097769    1.345182    2.281936
H      -0.178323    0.359564    3.013445
H       2.534633   -0.391073    2.976295
