22

C       0.023054    1.588669    0.120522
C      -0.033783    0.066534   -0.047717
C      -1.454081   -0.524344   -0.025092
C      -2.356012    0.018386   -1.134483
C      -1.493730   -2.065961    0.158583
O      -2.105644   -1.914457    1.474151
C      -2.102155   -0.533135    1.353540
N      -2.507686    0.351383    2.140261
C      -3.092283   -0.041630    3.415788
H       1.061192    1.925157    0.200171
H      -0.425777    2.108191   -0.731445
H      -0.511593    1.896062    1.023435
H       0.444757   -0.226763   -0.991992
H       0.549437   -0.405399    0.752747
H      -1.895584   -0.132934   -2.117305
H      -3.328687   -0.482963   -1.132203
H      -2.536122    1.087606   -1.000509
H      -2.153981   -2.615178   -0.518379
H      -0.524836   -2.567342    0.234376
H      -4.096643    0.388380    3.496535
H      -3.160801   -1.125804    3.562254
H      -2.496764    0.384787    4.230825
