17

O      -0.010642    1.433168    0.052872
C       0.024726    0.025871    0.028632
C       0.270132   -0.643751   -1.382591
C      -1.029192   -1.468420   -1.195072
O      -0.855979   -2.673574   -0.419462
C      -1.112049   -1.958600    0.842350
C       0.150606   -1.706284    1.629455
C       0.780978   -0.626246    1.166134
C      -1.376145   -0.649261    0.066984
H       0.877742    1.761965   -0.123150
H       0.148291    0.103341   -2.173270
H       1.194649   -1.205707   -1.528869
H      -1.677838   -1.625812   -2.058866
H      -1.925339   -2.443655    1.388179
H       0.514691   -2.373774    2.401496
H       1.747748   -0.261292    1.499601
H      -2.258698   -0.037522    0.235413
