16

O       0.086172    0.109069    0.171189
C       0.052444    1.304731    0.148748
C      -1.051829    2.322337    0.091568
C      -0.133375    3.188535   -0.787142
C      -0.449239    3.647600    0.601578
C       0.963369    3.342343    1.056972
C       1.931818    4.306722    1.606752
N       1.516456    3.104560    2.374117
C       1.095430    2.406073   -0.155660
H      -2.119881    2.176855    0.004524
H      -0.315150    3.593884   -1.769330
H      -1.104359    4.452563    0.912869
H       2.968119    4.300710    1.279915
H       1.560817    5.280823    1.918438
H       0.852350    3.352048    3.103622
H       2.049903    2.174576   -0.618686
