13

N       0.011486    1.371660    0.157260
C      -0.034048    0.005610    0.056007
N      -1.194928   -0.598473    0.035860
C      -1.150901   -1.962387   -0.001876
C      -0.019387   -2.720151   -0.038574
C       1.272090   -2.079628   -0.022461
O       2.379838   -2.580731   -0.041307
N       1.150548   -0.661925    0.029271
H       0.803334    1.855267   -0.236378
H      -0.881397    1.811836   -0.006637
H      -2.125759   -2.443657   -0.008487
H      -0.048638   -3.800497   -0.074435
H       2.032226   -0.169398    0.088330
