20

C      -0.243907    1.040447   -1.684712
C      -0.016987   -0.192038   -0.836888
C       1.355757   -0.642680   -0.371459
C       2.631998    0.096349   -0.709634
C       0.356723   -0.099530    0.625733
C       0.531765    1.221327    1.388422
O      -0.010025    0.924477    2.698911
C      -0.413504   -0.369192    2.636090
N      -0.262698   -1.021667    1.559882
H       0.441179    1.856478   -1.437133
H      -0.106830    0.813118   -2.747486
H      -1.264010    1.419796   -1.557827
H      -0.704807   -1.005818   -1.049238
H       1.473796   -1.721006   -0.310582
H       2.497374    1.181476   -0.739958
H       3.413807   -0.115847    0.028176
H       3.012176   -0.210772   -1.689990
H       1.574634    1.529809    1.514034
H      -0.035158    2.058314    0.968227
H      -0.848960   -0.748981    3.552903
