20

C       0.825793   -0.294331    1.285965
C       0.023211    0.025762    0.021681
C       0.738787   -0.403501   -1.275549
C       0.834053   -1.932266   -1.462022
C       0.124713   -2.243026   -2.797050
O      -0.003723   -3.357111   -3.263007
C      -0.332147   -0.976975   -3.347237
C       0.010093    0.052343   -2.532249
N      -0.182666    1.379765   -2.748671
H       1.023394   -1.366932    1.375470
H       1.792874    0.220768    1.279357
H       0.285722    0.020183    2.184007
H      -0.956227   -0.467596    0.060865
H      -0.181381    1.104571    0.000008
H       1.738233    0.053894   -1.273928
H       1.864944   -2.294382   -1.505923
H       0.338832   -2.485164   -0.657481
H      -0.857505   -0.898440   -4.290517
H      -0.794572    1.675745   -3.491011
H      -0.077950    2.025639   -1.985192
