18

O       0.429675    0.904839   -0.069751
C       0.057405   -0.460268   -0.006257
C      -1.472284   -0.686491    0.035463
O      -1.734939   -2.060718   -0.219762
C      -2.032579   -0.418297    1.433191
O      -1.640253    0.898591    1.826597
C      -2.182614    0.176222   -1.017888
O      -1.724637   -0.159077   -2.324224
H       0.016132    1.323433    0.696928
H       0.448588   -0.936059   -0.911532
H       0.515596   -0.977265    0.850806
H      -1.686040   -2.156786   -1.180392
H      -3.127155   -0.517719    1.421148
H      -1.628389   -1.177191    2.116787
H      -1.881665    1.031894    2.747075
H      -3.252455   -0.057355   -0.997823
H      -2.050306    1.240540   -0.802574
H      -0.883027    0.292845   -2.450628
