19

C       0.209765    1.600556    0.249462
O       1.413428    1.513083   -0.541163
C       1.233070    0.092744   -0.758706
C       2.388405   -0.729495   -0.273926
C       2.239278   -1.966829    0.194478
C       0.879674   -2.621762    0.285204
C      -0.031264   -1.954549    1.339773
O       0.059698   -0.539423    1.376980
C      -0.050792    0.093011    0.132505
H       0.405457    1.929164    1.275966
H      -0.540933    2.251608   -0.213936
H       1.025545   -0.101850   -1.823304
H       3.362493   -0.250764   -0.327285
H       3.104954   -2.526623    0.536699
H       0.384217   -2.583197   -0.693281
H       0.964899   -3.683656    0.536312
H      -1.073792   -2.266946    1.165155
H       0.252319   -2.277538    2.345720
H      -0.972605   -0.200780   -0.388535
