15

O      -0.448155    0.977814   -1.228654
C       0.185831    1.780272   -0.598906
C       1.574597    1.487408   -0.039740
O       2.234993    2.663536    0.399077
C       2.684846    3.465283   -0.589052
C       2.653358    3.407330   -1.969436
C       3.321112    4.593138   -2.362807
N       3.729828    5.318762   -1.332469
N       3.326492    4.605635   -0.249256
H      -0.203887    2.790009   -0.341734
H       1.460740    0.856593    0.847965
H       2.169719    0.937870   -0.778931
H       2.222172    2.644363   -2.594476
H       3.515426    4.937156   -3.368322
H       3.518833    4.939039    0.679875
