22

C      -0.242618    1.591564    0.061662
C      -0.022682    0.071941   -0.026581
C      -1.387629   -0.635540    0.063291
C       0.741847   -0.380369   -1.318959
C       2.116824   -0.851378   -0.828081
C       2.848057    0.303125   -0.111317
N       2.319344   -0.116630    1.232657
C       1.878329   -1.416910    0.599314
C       0.871502   -0.466881    1.097701
H       0.693618    2.151634    0.006285
H      -0.890098    1.936615   -0.752236
H      -0.728823    1.857059    1.006952
H      -2.017782   -0.365945   -0.791404
H      -1.269492   -1.724182    0.063720
H      -1.924003   -0.352750    0.975822
H       0.204915   -1.201204   -1.807271
H       0.832087    0.430229   -2.050433
H       2.687735   -1.437773   -1.548103
H       3.933569    0.174909   -0.089332
H       2.620633    1.330044   -0.417106
H       2.137611   -2.388051    1.004430
H       0.421863   -0.611077    2.076132
