22

C      -0.267059    1.512736   -0.438742
O      -0.132503    0.266209    0.212431
C      -1.252057   -0.547066    0.058264
C      -1.446349   -1.511021   -1.168513
C      -0.310765   -2.438624   -0.619732
C       1.182332   -2.159719   -0.747685
C      -1.202087   -2.000142    0.592474
N      -2.454951   -2.181096   -0.252298
C      -2.935792   -3.521642   -0.558507
H       0.618539    2.103560   -0.194452
H      -0.331456    1.400171   -1.530805
H      -1.162859    2.050371   -0.093123
H      -2.175407   -0.017903    0.323875
H      -1.696735   -1.265523   -2.203314
H      -0.480039   -3.483571   -0.888021
H       1.455481   -1.145508   -0.466469
H       1.743560   -2.857072   -0.114630
H       1.505036   -2.337493   -1.780545
H      -1.162119   -2.327912    1.633708
H      -3.448413   -3.911072    0.327502
H      -3.678258   -3.442591   -1.359724
H      -2.188654   -4.268221   -0.867677
