20

C      -0.020776    1.532346   -0.085107
N      -0.161055    0.109298   -0.300663
C       0.671230   -0.589817   -1.117331
O       1.607970   -0.133491   -1.736600
O       0.294794   -1.897713   -1.138395
C       1.093575   -2.752216   -1.954486
C       2.378835   -3.357896   -1.346565
C       1.977815   -4.707231   -2.008153
C       0.521530   -4.170644   -2.121544
H       0.855963    1.862100   -0.643669
H      -0.896876    2.084819   -0.444697
H       0.126296    1.764132    0.975934
H      -0.909285   -0.400203    0.137847
H       1.295133   -2.254241   -2.904948
H       3.330229   -2.897896   -1.616867
H       2.296556   -3.406737   -0.256801
H       2.443322   -4.837008   -2.988581
H       2.131151   -5.618188   -1.427263
H      -0.073125   -4.443521   -1.245242
H      -0.051682   -4.389176   -3.025051
