21

C      -0.036475    1.530937   -0.055048
C       0.051186    0.016102    0.017934
O       0.818726   -0.430161   -1.101899
C       0.743877   -1.829715   -1.273493
C       0.991539   -2.612537   -0.005547
C       1.234370   -4.085609   -0.172031
C       0.975013   -1.988728    1.174456
C       0.719900   -0.507113    1.300066
O       1.927542    0.194900    1.600227
H       0.956877    1.973249    0.041839
H      -0.474470    1.837020   -1.008450
H      -0.660606    1.914503    0.757810
H      -0.961368   -0.419699   -0.041836
H      -0.239706   -2.115182   -1.694274
H       1.494418   -2.088691   -2.030606
H       2.124733   -4.276015   -0.784828
H       1.371103   -4.579369    0.793236
H       0.393834   -4.570560   -0.685276
H       1.189046   -2.534158    2.090360
H       0.060131   -0.307617    2.152904
H       2.526125    0.013369    0.865503
