15

C       0.002487    1.529501   -0.012118
C      -0.036125    0.029819   -0.001723
C      -1.169384   -0.700262   -0.108162
C      -1.174147   -2.150725   -0.094513
N      -2.229148   -2.851559   -0.193000
O       0.074595   -2.768805    0.036098
C       1.211326   -2.041615    0.142937
C       1.199578   -0.702010    0.129101
F       2.341690   -0.009685    0.236555
H       0.623961    1.897095   -0.835748
H      -1.001102    1.945478   -0.116629
H       0.448698    1.913716    0.911547
H      -2.141301   -0.233979   -0.209854
H      -2.007783   -3.846746   -0.161353
H       2.102244   -2.647528    0.237555
