18

O      -0.363676    1.438579    0.414463
C      -0.071495    0.101820    0.083675
C       0.419970   -0.830820    1.231252
C      -0.830043   -1.739781    1.036687
C      -1.905778   -1.656713    2.127658
C      -2.596430   -0.317761    1.817477
O      -2.562982   -0.198845    0.396822
C      -1.363617   -0.769415   -0.068123
H       0.469483    1.891993    0.578777
H       0.566330    0.041075   -0.810199
H       1.382755   -1.317692    1.056945
H       0.453263   -0.326166    2.201979
H      -0.611408   -2.762545    0.727951
H      -2.618115   -2.480633    2.018948
H      -1.492456   -1.693890    3.139886
H      -3.643680   -0.281005    2.129023
H      -2.062691    0.523512    2.280037
H      -1.542836   -1.153156   -1.075081
