16

C       0.027484    1.564714    0.009557
C      -0.001791    0.026090    0.002645
C      -1.402786   -0.530151    0.012890
C      -2.095748   -0.800186    1.193653
N      -3.346425   -1.263377    1.220381
C      -3.916874   -1.463125    0.031554
N      -3.366474   -1.257106   -1.165594
C      -2.115477   -0.794012   -1.157447
H       1.057737    1.932762    0.001799
H      -0.486189    1.970861   -0.867401
H      -0.469907    1.962667    0.899571
H       0.528209   -0.343626   -0.882622
H       0.544394   -0.351816    0.874518
H      -1.617612   -0.640942    2.159858
H      -4.938026   -1.836901    0.039155
H      -1.653633   -0.629651   -2.130693
