16

C      -0.057241    1.551553   -0.000737
C      -0.020703    0.059250   -0.023902
C       0.460893   -1.006171   -1.010773
C       1.298799   -1.599233    0.104537
N       0.538500   -0.741497    1.126462
C      -0.548390   -1.600930    1.555885
O      -0.666063   -2.147354    2.605158
O      -1.426723   -1.777272    0.509563
C      -0.990955   -0.930782   -0.537906
H       0.944735    1.968873    0.137674
H      -0.464117    1.937078   -0.940666
H      -0.689992    1.911398    0.817663
H       0.721832   -0.911804   -2.058090
H       1.251778   -2.677132    0.289823
H       2.340682   -1.275589    0.083690
H      -1.773362   -0.685785   -1.243171
