22

C       0.101740    1.458109    0.291329
C       0.087210    0.005182    0.198263
C       0.071224   -1.198694    0.128370
C       0.057240   -2.637643    0.015066
C      -0.710660   -3.398878    1.048416
N      -1.237784   -3.287795   -0.318312
C       1.270592   -3.288392   -0.651326
C       1.396307   -2.846740   -2.114375
C       2.554719   -3.019852    0.142741
H       1.127513    1.839824    0.339972
H      -0.382103    1.920934   -0.576115
H      -0.422035    1.805448    1.188827
H      -0.371148   -4.393248    1.327519
H      -1.188484   -2.836151    1.844726
H      -1.969052   -2.581373   -0.344756
H       1.067640   -4.366273   -0.639185
H       2.225660   -3.364454   -2.606859
H       0.477482   -3.070700   -2.664112
H       1.581995   -1.769527   -2.183019
H       2.464276   -3.364576    1.178183
H       3.405656   -3.536136   -0.312695
H       2.782639   -1.949018    0.165419
