23

C      -0.052978    1.242636   -1.190273
C      -0.063240   -0.137694   -0.526429
C      -1.486565   -0.669151   -0.339935
N      -1.538063   -2.064175    0.099171
C      -0.880229   -2.357505    1.378645
C      -1.430102   -1.643936    2.624795
C      -2.888215   -2.597066   -0.002324
C      -2.920734   -4.060700    0.121485
N      -2.965300   -5.210208    0.226650
H       0.968306    1.618308   -1.300381
H      -0.504793    1.208562   -2.187652
H      -0.613225    1.974301   -0.597548
H       0.500695   -0.855783   -1.132823
H       0.447497   -0.072748    0.440951
H      -2.043673    0.009320    0.334565
H      -2.001485   -0.620521   -1.307992
H      -0.935163   -3.440998    1.526925
H       0.181958   -2.123403    1.264557
H      -0.871501   -1.967711    3.508445
H      -1.332976   -0.556257    2.553097
H      -2.484633   -1.877545    2.803431
H      -3.601229   -2.184652    0.736629
H      -3.290695   -2.340139   -0.988995
