21

C      -0.305214   -0.941217   -0.533215
C      -0.128669    0.240556   -0.398419
C       0.112026    1.668365   -0.224103
C       1.561211    1.994219    0.218169
C       2.647024    1.582521   -0.820512
C       3.140302    2.865796   -1.473063
C       2.123474    3.794779   -2.088960
C       2.613954    4.043535   -0.683659
C       1.780818    3.515540    0.475630
H      -0.472851   -1.982359   -0.656018
H      -0.133978    2.190634   -1.156342
H      -0.582086    2.060364    0.530573
H       1.721352    1.439759    1.147060
H       3.485763    1.098273   -0.308497
H       2.257591    0.852759   -1.538412
H       4.144404    2.872697   -1.883371
H       2.476823    4.470816   -2.860598
H       1.108240    3.448305   -2.249986
H       3.227658    4.920670   -0.508921
H       0.829488    4.048407    0.594638
H       2.336771    3.658322    1.408862
