20

C       0.043513    1.552794    0.136153
C      -0.159416    0.071269    0.428756
O      -0.632308   -0.026276    1.761079
C      -1.146729   -0.568985   -0.575112
C      -1.224012   -2.056347   -0.455828
N      -1.008373   -2.909272   -1.369005
C      -1.201816   -4.238668   -0.772420
C      -1.517419   -3.962959    0.720167
O      -1.551531   -2.518940    0.797828
H       0.706931    1.989407    0.887162
H       0.487289    1.701737   -0.852508
H      -0.912992    2.083742    0.177453
H       0.810448   -0.445994    0.326997
H      -0.898296   -0.942485    1.907249
H      -2.138565   -0.138360   -0.390115
H      -0.854925   -0.340770   -1.602261
H      -2.018997   -4.758596   -1.283879
H      -0.299617   -4.844178   -0.904212
H      -2.488222   -4.344518    1.045878
H      -0.744737   -4.325910    1.403901
