16

C       0.186267    1.355742   -0.428587
C       0.019062   -0.038089    0.185123
O       0.479323   -0.069106    1.533654
C      -1.392921   -0.554723    0.086278
C      -2.071561   -1.211362    1.066974
O      -3.323732   -1.545465    0.652257
C      -3.446138   -1.097338   -0.623260
C      -2.304420   -0.483469   -1.025765
H       1.220762    1.688743   -0.310977
H      -0.059392    1.354356   -1.495046
H      -0.474090    2.077657    0.065557
H       0.692284   -0.728581   -0.339748
H      -0.077424    0.536769    2.036730
H      -1.804462   -1.515589    2.064175
H      -4.394724   -1.286766   -1.098171
H      -2.127382   -0.035334   -1.991026
