18

C       0.450405    1.447917   -0.075602
C      -0.205605    0.075644    0.075611
O       0.053357   -0.769301   -1.052468
C       1.156375   -1.633958   -0.791422
C       1.214459   -1.780678    0.713515
C       0.344837   -0.689704    1.266665
N      -0.070408   -2.085571    1.309256
C      -0.212990   -2.829166    2.468938
O       0.412564   -3.826932    2.731167
H       1.542283    1.367203   -0.090184
H       0.128217    1.910098   -1.011775
H       0.167396    2.108563    0.751031
H      -1.295102    0.182503    0.129131
H       0.969230   -2.575668   -1.315999
H       2.104671   -1.210274   -1.156724
H       2.109529   -2.129520    1.216855
H       0.580630   -0.180194    2.195992
H      -1.027604   -2.436481    3.107512
