23

C       0.373206    1.574377    0.260244
C      -0.045196    0.129649   -0.056285
C       0.204252   -0.792850    1.135599
O      -1.446948    0.073979   -0.321240
C       0.699759   -0.394262   -1.292511
O       0.278095    0.387588   -2.403751
C       0.783791   -0.048325   -3.627327
C       0.099902   -1.182917   -4.345765
C      -0.042862    0.245829   -4.835305
H       1.429044    1.630884    0.546834
H       0.223785    2.214599   -0.613210
H      -0.232024    1.960122    1.084922
H      -0.352932   -0.433218    2.005149
H      -0.134814   -1.808385    0.912263
H       1.266729   -0.823848    1.395964
H      -1.563100    0.462108   -1.197181
H       1.789923   -0.315404   -1.159637
H       0.445919   -1.450251   -1.460895
H       1.868447    0.028115   -3.709901
H       0.702357   -1.878092   -4.919885
H      -0.762730   -1.622485   -3.857236
H      -0.995279    0.733814   -4.662295
H       0.461386    0.543638   -5.747481
