12

O       0.006114   -0.074825   -0.003739
C       0.000032    1.133872    0.006872
C       1.215727    1.959140    0.000707
C       2.506259    1.492462   -0.017407
O       3.383625    2.504672   -0.018436
C       2.654169    3.669562   -0.000478
C       1.320150    3.385730    0.012079
C       3.366526    4.887493    0.002046
N       3.930623    5.898953    0.004478
H      -0.950296    1.709137    0.022252
H       2.916175    0.496028   -0.030506
H       0.516522    4.105120    0.027247
