21

C       0.109994    1.446499   -0.269391
C      -0.059120   -0.058210   -0.043291
C      -1.508079   -0.515423    0.100832
C      -2.243276    0.069296    1.307244
O      -2.217390   -0.199574   -1.107933
C      -3.109442   -1.257183   -1.350630
C      -2.519981   -2.482792   -2.014950
C      -2.647407   -2.399961   -0.508714
O      -1.509109   -1.950040    0.180043
H       1.162497    1.688699   -0.443120
H      -0.462999    1.772515   -1.141612
H      -0.222815    2.030997    0.593873
H       0.362172   -0.615215   -0.885831
H       0.483085   -0.378024    0.853448
H      -2.317485    1.156513    1.228420
H      -3.255680   -0.340692    1.357835
H      -1.719286   -0.185934    2.232518
H      -4.145130   -0.967982   -1.491742
H      -3.201189   -3.144784   -2.540662
H      -1.525762   -2.392060   -2.436886
H      -3.298616   -3.062292    0.051147
