19

C      -0.261011    1.544539    0.044072
C       0.122674    0.082490   -0.006406
O       1.382040   -0.130480   -0.738688
C       1.983646   -0.749400    0.345036
N       3.127432   -1.241226    0.480642
C       0.781399   -0.572679    1.218731
C       0.675475   -0.224878    2.659950
N       0.265604   -1.534726    2.169795
C      -1.164567   -1.811433    2.129721
H       0.527862    2.137563    0.514979
H      -0.431235    1.929141   -0.966127
H      -1.185394    1.675597    0.616365
H      -0.664555   -0.526735   -0.463378
H       3.673156   -1.161480   -0.378720
H       1.570897   -0.206197    3.274359
H      -0.100931    0.488313    2.938059
H      -1.785163   -0.926760    1.909800
H      -1.365394   -2.573241    1.370370
H      -1.471250   -2.209476    3.101228
