21

C      -0.227680    1.477963    0.024896
C       0.026553   -0.021811    0.082488
C       0.983227   -0.614510   -0.964097
O       2.280036   -0.048220   -0.727769
C       1.869116   -1.168490    0.069062
C       0.987714   -0.620642    1.205129
C       1.645694    0.294655    2.200506
C       0.954976    0.639450    3.497666
C       2.167033   -0.257569    3.506418
H       0.711420    2.026885   -0.082040
H      -0.865742    1.729920   -0.829474
H      -0.728641    1.830092    0.931930
H      -0.920155   -0.571999    0.089422
H       0.773690   -0.955121   -1.972037
H       2.513262   -2.040747    0.058564
H       0.475455   -1.436414    1.727201
H       2.240316    1.082171    1.749498
H       1.055345    1.647768    3.883909
H      -0.010859    0.184780    3.694613
H       2.014557   -1.312917    3.709519
H       3.098696    0.137082    3.896205
