8

F       0.017062    0.059336   -0.026274
C      -0.013812    1.392653    0.004690
F       1.241859    1.841898   -0.028577
F      -0.642339    1.823032   -1.090458
C      -0.701412    1.866734    1.215368
C      -1.264928    2.255462    2.205061
C      -1.905656    2.696086    3.329377
N      -2.449609    3.070382    4.283633
