20

C      -0.538182    1.437318    0.009001
C       0.170231    0.085941   -0.025944
C       1.258542   -0.035973   -1.101332
O       2.143793   -1.067103   -0.667360
C       1.947111   -1.337283    0.718782
C       3.307483   -1.332035    1.436881
C       4.202038   -2.390565    0.973377
N       4.905323   -3.237119    0.622213
C       0.976495   -0.266297    1.235114
H       0.175232    2.250611    0.184634
H      -1.051353    1.641111   -0.936562
H      -1.287991    1.471429    0.805474
H      -0.570548   -0.706068   -0.195257
H       0.865348   -0.307583   -2.086357
H       1.807519    0.913663   -1.205225
H       1.503945   -2.338454    0.821780
H       3.792217   -0.362211    1.280749
H       3.153230   -1.455432    2.515335
H       1.530125    0.615856    1.582676
H       0.359491   -0.623113    2.063536
