16

O       0.019758   -0.055326    0.058890
C      -0.002898    1.158101    0.020742
C      -1.312768    1.980013   -0.005541
N      -1.140990    3.444773   -0.051941
C      -0.094405    3.754673   -1.098025
C       0.985611    3.399511   -0.049932
C      -0.094958    3.820331    0.972966
N       1.115405    1.947180   -0.003785
H      -1.893517    1.654578   -0.874653
H      -1.893871    1.710283    0.882208
H      -0.139150    3.148518   -2.006474
H      -0.129297    4.817808   -1.350368
H       1.971515    3.869472   -0.064555
H      -0.129959    4.897315    1.157440
H      -0.140193    3.272934    1.917959
H       2.014923    1.492675    0.010324
