16

O      -0.040289    0.069368   -0.544576
C      -0.067074    1.208525   -0.200311
C      -1.164132    2.219846    0.112464
C      -1.605085    2.156675    1.612739
C      -0.505020    3.194938    1.984661
C      -0.056582    3.272101    0.503464
C       1.065136    2.263775    0.085554
C       2.119263    1.930878    1.019704
N       2.929697    1.660375    1.799506
H      -1.937808    2.362118   -0.642115
H      -2.621464    2.526877    1.756010
H      -1.530740    1.171981    2.078555
H      -0.909019    4.138259    2.356496
H       0.262350    2.854398    2.683653
H       0.019646    4.254946    0.042604
H       1.501130    2.547871   -0.879793
