20

C      -0.102833    1.488270   -0.076443
N      -0.032011    0.047285    0.068235
C      -1.243232   -0.643272    0.629948
C      -0.276995   -1.514975    1.393313
C       0.175065   -2.736066    1.640386
C       1.706564   -2.695833    1.721656
O       2.324684   -3.838066    1.155013
C       2.068425   -1.352847    0.992356
C       0.803677   -0.500150    1.185489
H       0.872975    1.872589   -0.390866
H      -0.831082    1.749193   -0.851599
H      -0.394015    2.008749    0.855825
H      -1.845716    0.020621    1.271654
H      -1.897079   -1.118283   -0.108243
H      -0.371220   -3.670413    1.694706
H       2.067509   -2.686417    2.757872
H       2.016059   -3.908998    0.244225
H       2.993959   -0.905430    1.364250
H       2.193860   -1.571139   -0.074327
H       0.909602    0.233562    2.002094
