18

C       0.059075    1.497133   -0.072386
C       0.044612   -0.024877    0.047677
O       0.698490   -0.476823    1.225163
C      -1.386428   -0.586775   -0.029728
N      -1.431131   -2.046599    0.012945
C      -1.416890   -2.678006    1.268759
O      -1.363023   -3.857256    1.470198
C      -1.434035   -2.745528   -1.201261
O      -1.429585   -3.934983   -1.346151
H       1.083621    1.869349    0.003560
H      -0.358874    1.827148   -1.028605
H      -0.534377    1.958853    0.727301
H       0.623915   -0.461952   -0.775064
H       0.388071    0.055098    1.966753
H      -1.980818   -0.191348    0.802302
H      -1.870881   -0.249408   -0.951122
H      -1.480564   -1.925456    2.076851
H      -1.454012   -2.033763   -2.052569
