17

O      -0.264165    1.026139   -1.058427
C      -0.037342    0.123535    0.007954
C      -1.283420   -0.675254    0.306640
O      -1.582682   -1.744541   -0.608063
C      -1.321899   -2.074865    0.760489
C      -0.106011   -2.924291    1.029983
O      -0.413583   -4.308577    0.819108
C      -0.270709   -4.783282   -0.439605
O      -0.543316   -5.906994   -0.731305
H      -0.522229    0.502903   -1.825753
H       0.810449   -0.542981   -0.202466
H       0.224674    0.736578    0.877314
H      -2.149225   -0.055298    0.544871
H      -2.205441   -2.399100    1.312232
H       0.736329   -2.622915    0.400358
H       0.194132   -2.846610    2.078415
H       0.126726   -4.027167   -1.141809
