21

C      -0.017227    1.473196   -0.285186
C       0.051486   -0.005251    0.029953
O      -1.089113   -0.702947   -0.417919
C       1.366781   -0.753206    0.001443
C       0.639767   -0.536113    1.319539
C       1.241286    0.410807    2.340922
C      -0.044855   -1.754293    1.948302
C       0.891245   -2.644185    2.629130
C       1.674200   -3.367822    3.185346
H       0.866998    2.014218    0.057383
H      -0.091299    1.621554   -1.369795
H      -0.902585    1.923942    0.174612
H      -1.053010   -0.736030   -1.380161
H       1.358022   -1.754881   -0.415989
H       2.281349   -0.196104   -0.177235
H       1.810934    1.218301    1.875725
H       0.464691    0.864466    2.968293
H       1.922231   -0.138640    2.999044
H      -0.802687   -1.410084    2.665474
H      -0.588919   -2.303905    1.176259
H       2.356402   -4.015930    3.676686
