18

C      -0.081151    1.431110    0.019784
C       1.303823    0.838771    0.026383
C       1.955430    0.618180    1.384357
N       1.109541    1.009753    2.530772
C       1.188842   -0.413687    2.128330
C       0.046554   -0.865944    1.247373
C      -0.458281   -2.244621    1.296005
O      -1.213524   -1.170769    1.855846
C       0.089353   -0.069722   -0.038266
H      -0.438995    1.878457    0.937804
H      -0.411982    1.909303   -0.895715
H       1.955722    0.973661   -0.828193
H       3.032778    0.705779    1.469851
H       1.691250    1.150715    3.353271
H       1.646907   -1.124821    2.808140
H      -0.874433   -2.695211    0.394912
H      -0.042523   -2.953262    2.012920
H      -0.188403   -0.580570   -0.953367
