17

C       0.030597    1.528057    0.054159
C      -0.017777    0.011762   -0.012642
C       0.770995   -0.652463   -1.167938
N       1.616903   -1.669475   -0.530128
C       1.450121   -1.517904    0.713059
O       0.610875   -0.540265    1.165032
O      -1.353124   -0.469255   -0.102506
C      -2.167612   -0.312335    0.970804
N      -3.397652   -0.561480    0.847796
H       1.067604    1.869300    0.093002
H      -0.450924    1.947959   -0.832882
H      -0.490074    1.900194    0.940320
H       0.080317   -1.109259   -1.880098
H       1.397692    0.066184   -1.705675
H       1.931063   -2.091238    1.497044
H      -1.647203   -0.002688    1.881734
H      -3.867032   -0.429215    1.741704
