16

C      -0.075139    1.306421    0.154757
O       0.070354   -0.115245    0.083765
C       0.601802   -0.695184    1.179037
N       0.948736   -0.043932    2.197110
N       0.688083   -2.110630    0.969858
C       1.201556   -2.987838    1.936934
N       1.631742   -2.615592    3.071777
C       0.254621   -2.704493   -0.237518
O       0.310455   -3.889287   -0.451378
H       0.896157    1.784689    0.300728
H      -0.512801    1.599609   -0.799905
H      -0.729303    1.584225    0.984414
H       1.326186   -0.660782    2.915796
H       1.170957   -4.011498    1.565023
H       1.953982   -3.420649    3.605027
H      -0.133400   -1.968897   -0.946873
