22

C      -1.593383   -0.338284    0.239559
C      -0.124308    0.075070    0.105877
C       0.740988   -0.346412    1.303993
C       0.841439   -1.883152    1.500204
C       2.271459   -2.149026    2.029336
C       3.015142   -0.904102    1.616121
C       2.202526    0.079528    1.224520
C       2.607858    1.463769    0.821309
H      -2.044156    0.097294    1.138738
H      -2.179442   -0.003235   -0.621977
H      -1.700469   -1.425511    0.310734
H       0.300805   -0.358340   -0.809735
H      -0.070493    1.163994   -0.016154
H       0.297911    0.116720    2.202525
H       0.063548   -2.281962    2.156295
H       0.721148   -2.370119    0.524934
H       2.286059   -2.265343    3.123049
H       2.705504   -3.069325    1.621286
H       4.095108   -0.816679    1.685644
H       3.690272    1.600187    0.895801
H       2.309510    1.692105   -0.209143
H       2.126856    2.219266    1.456929
