17

O      -0.010322    1.402006   -0.478365
C      -0.017283    0.043919   -0.086767
C       0.059519   -0.256381    1.456812
C      -1.150887   -1.224557    1.318537
C      -1.432812   -0.573284   -0.033721
C      -2.649209    0.067886   -0.527505
O      -2.120854   -1.131757   -1.123123
C       0.925441   -0.748049   -0.866834
C       1.730077   -1.371574   -1.506766
H       0.857295    1.606644   -0.841960
H       0.997285   -0.669595    1.827810
H      -0.194018    0.652902    2.005369
H      -0.838796   -2.265923    1.204574
H      -1.934479   -1.164720    2.075480
H      -3.581573   -0.057142    0.021599
H      -2.567185    0.963905   -1.137755
H       2.425723   -1.932413   -2.081185
