20

C      -0.023634    1.517865   -0.007896
C      -0.052751    0.012245   -0.092240
C       0.867002   -0.685122   -1.091551
C       0.332690   -2.105624   -1.193372
C       0.093206   -2.808781    0.118434
C       0.392723   -1.974681    1.353659
N      -0.300389   -0.685635    1.188236
C      -1.284005   -0.823075    0.088272
C      -1.067435   -2.151527   -0.604249
H       0.968952    1.874337    0.291651
H      -0.266162    1.972018   -0.975237
H      -0.742134    1.871491    0.735567
H       0.806855   -0.176315   -2.060953
H       1.917843   -0.648122   -0.774911
H       0.588685   -2.705600   -2.059660
H       0.186977   -3.888739    0.160522
H       0.005922   -2.459377    2.257298
H       1.464535   -1.800400    1.506610
H      -2.279742   -0.421516    0.243075
H      -1.884994   -2.705048   -1.045737
