14

O      -0.225182    0.019072    0.129594
C      -0.042673    1.177762   -0.146139
C       1.243323    1.942261    0.009395
C       1.610322    2.637573    1.361619
C       1.932637    1.210965    1.854363
N       2.524748    1.200891    0.423805
C       3.041379    2.607835    0.793797
H      -0.866816    1.803854   -0.563212
H       1.382400    2.566821   -0.882631
H       1.078510    3.450168    1.867996
H       2.696989    1.114014    2.629144
H       1.124129    0.496763    1.994019
H       3.272718    3.233912   -0.072272
H       3.870470    2.583505    1.505079
