19

O      -0.183439    0.469708    1.063709
C      -0.108521    1.365257    0.264470
C      -1.271424    1.947837   -0.546445
C      -0.843306    3.368423   -0.944201
C      -1.421726    4.494580   -0.057671
O      -0.372904    5.429127    0.124044
C       0.794220    4.652268    0.325912
C       0.706257    3.478503   -0.675755
C       1.167142    2.121177   -0.123617
H      -1.404033    1.305642   -1.426284
H      -2.201192    1.895717    0.026100
H      -1.066386    3.575965   -1.991951
H      -2.268577    5.018980   -0.506964
H      -1.745834    4.083912    0.914657
H       1.661918    5.298644    0.173223
H       0.827723    4.267220    1.360186
H       1.236496    3.739245   -1.593076
H       1.849062    2.183772    0.728477
H       1.673840    1.524318   -0.892466
