12

N      -0.247568    1.279281    0.398855
C      -0.053345    0.097794   -0.049211
C       1.278748   -0.439869   -0.407025
N       1.693109   -1.555527   -0.885473
O       0.837267   -2.508336   -1.397293
C      -0.484924   -2.191895   -1.783009
O      -0.807256   -2.377969   -2.912145
N      -1.365562   -1.850647   -0.764659
C      -1.210869   -0.829079   -0.027663
H       0.608872    1.839591    0.365620
H       2.112103    0.200446   -0.116998
H      -1.984672   -0.587655    0.701136
