20

C       0.002133    1.585393    0.298131
O       0.476038    0.309997   -0.070221
C       0.819239   -0.482787    1.032068
C      -0.349409   -1.179619    1.794877
N       0.105181   -2.533271    1.349065
C      -0.427910   -2.885240   -0.012715
C       0.962743   -2.600381   -0.641889
O       1.073041   -1.859125   -1.826205
C       1.328046   -1.906611    0.683226
H       0.756710    2.147322    0.871421
H      -0.218942    2.127043   -0.624301
H      -0.915666    1.529034    0.903495
H       1.510120    0.065745    1.691842
H      -0.300286   -1.082786    2.884298
H      -1.355512   -0.908717    1.458036
H      -0.812283   -3.907575   -0.079264
H      -1.186812   -2.184953   -0.379731
H       1.544461   -3.530925   -0.705324
H       1.010207   -2.468748   -2.567795
H       2.309172   -2.143705    1.103833
