25

C       0.069270    1.556964   -0.001137
C       0.024557    0.025539    0.019452
C      -1.394690   -0.556514   -0.002471
C      -2.208414   -0.231774   -1.282080
C      -3.249296   -1.365836   -1.406028
C      -2.606264   -2.587015   -0.751811
C      -3.507432   -3.717879   -0.317180
C      -1.181596   -2.877868   -1.163969
C      -1.457477   -2.077712    0.091712
H       1.099095    1.924377    0.049689
H      -0.380687    1.961339   -0.913867
H      -0.476139    1.979743    0.850541
H       0.586141   -0.373113   -0.835775
H       0.541987   -0.337961    0.916810
H      -1.938796   -0.153202    0.865122
H      -2.674405    0.756162   -1.244677
H      -1.541908   -0.227859   -2.152459
H      -4.159301   -1.108565   -0.848045
H      -3.553739   -1.543435   -2.444316
H      -3.996967   -4.191484   -1.176949
H      -2.945598   -4.495710    0.210143
H      -4.296928   -3.361015    0.355477
H      -0.832569   -3.896306   -1.026903
H      -0.756878   -2.386887   -2.033936
H      -1.223545   -2.540292    1.046122
