16

C      -0.050231    1.379504    0.311247
C      -0.046784   -0.128050   -0.031244
C      -1.469704   -0.690979   -0.124546
C       0.687821   -0.319067   -1.348925
O       0.185353   -0.234599   -2.437250
C       2.204905   -0.641294   -1.235409
F       2.794185   -0.685991   -2.418858
F       2.829348    0.278030   -0.479296
F       2.358619   -1.832143   -0.632515
H       0.964025    1.778121    0.386304
H      -0.588563    1.942730   -0.457162
H      -0.553652    1.537487    1.269173
H       0.512594   -0.656300    0.748660
H      -2.015656   -0.214017   -0.942283
H      -1.461266   -1.769115   -0.308969
H      -2.008648   -0.507989    0.809310
