19

C      -0.257782    1.479862    0.061534
C       1.178462    1.071631   -0.121681
C       0.102845    0.010517   -0.004060
C       0.003483   -0.916962    1.217835
C      -0.418089   -2.275804    0.638187
C      -0.117741   -3.569289    1.270158
O      -1.435651   -3.023292    1.331227
C      -0.567098   -2.080391   -0.827588
C      -0.280786   -0.823204   -1.172179
H      -0.559463    1.874635    1.026304
H      -0.782366    1.916528   -0.782078
H       1.639254    1.227391   -1.091717
H       1.856626    1.189378    0.717471
H       0.953944   -0.986153    1.755182
H      -0.756874   -0.581599    1.929258
H      -0.006722   -4.464714    0.657951
H       0.428536   -3.588081    2.213791
H      -0.879338   -2.878489   -1.489503
H      -0.310596   -0.421416   -2.179523
