19

N      -0.048854   -1.202519   -0.637891
C       0.017827   -0.048893   -0.656563
C       0.125928    1.407097   -0.667817
C       1.434061    1.909328   -0.017156
C       1.485169    3.427675   -0.047233
C       2.792753    4.260277   -0.017766
C       2.974395    3.816062   -1.484782
N       1.464473    4.128758   -1.431615
C       1.911466    5.369023   -0.632792
H       0.070705    1.765976   -1.700884
H      -0.742805    1.825505   -0.146143
H       1.474064    1.577134    1.026148
H       2.284642    1.446973   -0.522913
H       0.680718    3.821962    0.586559
H       3.539850    4.336343    0.779820
H       3.524018    4.484978   -2.151767
H       3.215162    2.776351   -1.707320
H       1.117873    5.802527   -0.017919
H       2.397594    6.126631   -1.252043
