18

C      -0.056421    1.563397    0.076989
C      -0.001192    0.034922    0.007774
C       0.712359   -0.478058   -1.246451
C       0.762610   -2.020239   -1.306524
C       1.436723   -2.527549   -2.490977
C       2.001382   -2.928740   -3.483829
C       2.636136   -3.380168   -4.599680
C       3.199673   -3.780605   -5.590049
H       0.950156    1.995635    0.083576
H      -0.588824    1.979374   -0.785324
H      -0.570647    1.902533    0.981428
H       0.506926   -0.355535    0.899566
H      -1.020875   -0.371681    0.036980
H       0.207601   -0.103418   -2.144674
H       1.736055   -0.087236   -1.281727
H       1.267174   -2.403825   -0.409158
H      -0.260108   -2.420000   -1.271461
H       3.694832   -4.132368   -6.460528
