15

C      -0.183754    1.362685   -0.287342
C       1.229912    1.081217    0.169306
C       0.219984   -0.031251    0.106857
N      -0.287345   -0.635236    1.305250
C      -0.571001   -0.097414    2.515649
C      -1.023942   -1.161177    3.259854
N      -0.996216   -2.278097    2.486292
N      -0.550493   -1.960605    1.303320
H      -0.834815    1.905861    0.388552
H      -0.369047    1.555108   -1.337863
H       2.028806    1.077674   -0.563299
H       1.524463    1.436122    1.150651
H       0.317158   -0.787855   -0.660332
H      -0.435767    0.946458    2.741157
H      -1.359764   -1.184643    4.283819
