23

C       0.021442    1.550190   -0.042407
C      -0.019585    0.020683   -0.081551
C      -1.437500   -0.545899    0.046754
C      -1.484944   -2.076973    0.073783
O      -0.705682   -2.611086    1.146037
C      -2.922151   -2.619156    0.123152
C      -2.968436   -4.123743    0.017464
C      -4.093565   -4.831087   -0.603376
O      -2.861606   -4.663409   -1.306308
H       1.045614    1.923527   -0.139830
H      -0.570116    1.986333   -0.855360
H      -0.383531    1.934692    0.900754
H       0.422927   -0.335839   -1.020892
H       0.600509   -0.394363    0.720191
H      -1.909500   -0.161355    0.965210
H      -2.059424   -0.186669   -0.783892
H      -1.002365   -2.467092   -0.830982
H      -1.054375   -2.244815    1.967152
H      -3.391715   -2.302697    1.066696
H      -3.511363   -2.185709   -0.692957
H      -2.369991   -4.655287    0.756653
H      -4.327683   -5.851829   -0.303417
H      -4.936027   -4.260742   -0.994422
