23

C      -0.293380    1.724142    0.396051
C       0.024776    0.304535   -0.067866
N       0.783579   -0.398558    0.961879
C       0.049857   -1.174329    1.953589
C       0.895010   -1.861454    0.934135
C       0.335363   -2.752860   -0.157579
C      -1.145863   -3.077390   -0.163389
C       1.088092   -2.764745   -1.446443
N       1.170843   -3.915073   -0.534364
H       0.625849    2.261328    0.645579
H      -0.822007    2.277607   -0.386297
H      -0.928010    1.710073    1.288325
H      -0.910042   -0.209259   -0.343027
H       0.644473    0.337936   -0.971535
H       0.384598   -1.084225    2.984294
H      -1.029920   -1.255140    1.838090
H       1.885748   -2.186700    1.255992
H      -1.766216   -2.192116   -0.331759
H      -1.356531   -3.798699   -0.956756
H      -1.448001   -3.526380    0.788468
H       0.563012   -2.954564   -2.379150
H       1.949805   -2.108304   -1.538709
H       2.054286   -3.890827   -0.029863
