13

O      -0.076621    1.385026    0.006176
C       0.016833    0.005067   -0.010439
C       0.673517   -0.975988    0.996521
N       0.017455   -1.913683   -0.027038
C      -1.182035   -0.949882    0.041597
C       0.568355   -0.957930   -1.094938
H       0.811880    1.755824   -0.035228
H       1.764420   -1.051748    1.016596
H       0.243075   -1.053009    1.998086
H      -1.745009   -1.021359    0.975360
H      -1.835894   -1.005753   -0.832078
H       0.039557   -1.018062   -2.049454
H       1.651677   -1.032389   -1.225634
