14

C      -0.111846    1.365786   -0.244173
C       1.287496    0.918817    0.009353
N       0.185789   -0.032976    0.080696
C      -0.188553   -0.537378    1.322813
N       0.685668   -0.734701    2.286810
O      -0.037251   -1.325179    3.326272
C      -1.317137   -1.448562    2.948255
C      -1.497558   -0.974905    1.693045
H      -0.590814    1.968966    0.523000
H      -0.460947    1.539141   -1.257373
H       1.968402    0.769031   -0.822439
H       1.751038    1.212628    0.945871
H      -1.979741   -1.894767    3.674268
H      -2.398945   -0.943445    1.105220
