16

O      -0.144214    1.318380   -0.028092
N      -0.009627   -0.080058    0.015972
C      -1.132168   -0.656694    0.016208
C      -2.591425   -0.247923    0.018971
C      -3.062236   -1.032931   -1.213249
O      -2.282265   -2.256187   -1.143612
C      -1.442884   -2.133088    0.017627
C      -2.354341   -2.192804    1.251452
O      -3.079616   -0.936658    1.182667
H       0.773577    1.611534   -0.008912
H      -2.847287    0.806085    0.072055
H      -4.129107   -1.270007   -1.152019
H      -2.850187   -0.513405   -2.155753
H      -0.623787   -2.845774   -0.034610
H      -3.056635   -3.030215    1.192688
H      -1.792963   -2.242628    2.192554
