20

C       0.004312    1.542768   -0.053314
C       0.017882    0.009485    0.023740
C       0.847478   -0.459796    1.228536
C      -1.426531   -0.537457    0.042638
O      -2.185963   -0.036569   -1.048471
C      -1.484650   -2.082707    0.083798
C      -2.843480   -2.608656    0.076873
C      -3.962614   -3.045945    0.086104
H       1.019177    1.934554   -0.174467
H      -0.608909    1.888681   -0.887255
H      -0.410098    1.971934    0.866988
H       0.494468   -0.375954   -0.892121
H       1.020569   -1.539525    1.229790
H       1.827755    0.026979    1.227830
H       0.351859   -0.196247    2.170701
H      -1.937692   -0.150687    0.933358
H      -1.837282   -0.425966   -1.858455
H      -0.927793   -2.479494   -0.778613
H      -0.961818   -2.447749    0.974374
H      -4.953349   -3.427242    0.089052
