23

C      -0.244333    1.392529   -0.737110
O      -0.249797   -0.009396   -0.850410
C       0.907971   -0.608562   -0.312934
C       0.804662   -2.115479   -0.515424
C       0.752600   -2.527129   -1.989468
C       0.781037   -4.056787   -2.117135
C       1.965909   -4.629406   -1.326367
C       1.949281   -4.089642    0.105327
O       1.938861   -2.671806    0.136164
H      -0.191766    1.717493    0.314204
H       0.604587    1.842880   -1.275888
H      -1.175693    1.761063   -1.174209
H       1.816935   -0.230130   -0.810325
H       1.005461   -0.391168    0.762737
H      -0.115502   -2.467804   -0.015269
H      -0.142578   -2.101009   -2.451116
H       1.623446   -2.094900   -2.500399
H      -0.155210   -4.472221   -1.719158
H       0.833780   -4.356353   -3.169160
H       1.937969   -5.725068   -1.307604
H       2.908622   -4.334463   -1.803841
H       1.066441   -4.481813    0.640810
H       2.840503   -4.398375    0.659902
