18

C       0.146002    1.350031    0.066099
O      -0.448064    0.241995   -0.582602
C       0.446526   -0.487042   -1.348627
C       1.395884   -1.453516   -0.713373
C       0.195988   -1.978629   -1.480519
C      -0.931027   -2.583049   -0.690477
C      -2.033755   -3.223273   -1.512676
O      -0.963613   -2.553028    0.518575
H       0.944490    1.036254    0.752120
H       0.567454    2.064494   -0.657369
H      -0.643248    1.845141    0.635557
H       0.779730    0.024208   -2.254517
H       2.384688   -1.584081   -1.137770
H       1.310477   -1.581389    0.360616
H       0.341968   -2.388863   -2.474473
H      -1.629245   -4.041606   -2.119761
H      -2.814714   -3.605764   -0.854838
H      -2.458177   -2.490039   -2.207875
