20

C       0.185740    1.466545    0.095619
N       0.412906    0.042149   -0.021937
C       0.334222   -0.619908   -1.200584
O       0.091533   -0.107645   -2.281975
C       0.578221   -2.132180   -1.086804
C      -0.657032   -2.894031   -1.534786
C       1.941309   -2.570083   -1.683069
C       2.340203   -2.846177   -0.222495
O       1.010293   -2.522813    0.251506
H       1.068050    1.980495    0.493455
H      -0.027767    1.847483   -0.904413
H      -0.666289    1.682338    0.750109
H       0.624590   -0.523293    0.786812
H      -0.938103   -2.570294   -2.539947
H      -0.463979   -3.970278   -1.535974
H      -1.494109   -2.692747   -0.858405
H       1.877067   -3.457416   -2.314956
H       2.495938   -1.792532   -2.207764
H       2.613339   -3.877170    0.024872
H       3.094453   -2.167438    0.193454
