20

C       0.444287    1.427543    0.306810
C      -0.269678    0.160394   -0.179995
C       0.452315   -0.490047   -1.350534
O       1.724939   -1.094196   -1.079845
C       0.665568   -1.958607   -1.524269
C       0.149729   -2.946498   -0.498895
C       0.855958   -2.540534   -2.909180
C       0.428721    0.337449   -2.553001
N       0.372159    1.016257   -3.487292
H       1.464777    1.194469    0.623725
H       0.496801    2.182660   -0.483150
H      -0.088098    1.863608    1.156375
H      -0.344436   -0.559776    0.636702
H      -1.292424    0.397266   -0.496098
H       0.171779   -2.542124    0.512746
H      -0.873826   -3.252260   -0.738307
H       0.776951   -3.843932   -0.513534
H       1.586190   -3.355134   -2.865781
H      -0.086195   -2.953158   -3.284279
H       1.214364   -1.792031   -3.616972
