21

C       0.066306    1.481036   -0.063068
C      -0.054840   -0.008494    0.093581
C      -1.317004   -0.745572   -0.325199
C      -1.111147   -2.208965    0.166959
C      -2.413761   -2.944582    0.451657
O      -0.436967   -2.968381   -0.830663
C      -0.198660   -2.052313    1.422224
C       0.611245   -0.807517    1.134880
O       1.142110   -0.771772   -0.209279
H       1.025795    1.834448    0.322818
H      -0.002912    1.766020   -1.118460
H      -0.739173    1.992431    0.474465
H      -2.181196   -0.277635    0.162323
H      -1.487551   -0.728844   -1.405827
H      -3.010438   -3.020726   -0.462100
H      -2.203238   -3.959922    0.800333
H      -3.003524   -2.427114    1.213969
H       0.386846   -2.491622   -1.004257
H      -0.787955   -1.895026    2.334112
H       0.411322   -2.949366    1.561299
H       1.258128   -0.364585    1.888564
