20

C       0.104405    1.513615    0.192185
C      -0.036641    0.019263   -0.129255
C      -1.459990   -0.453085   -0.033938
C      -2.065936   -1.003401    1.199931
N      -1.858264   -1.918066    0.060876
C      -2.995318   -1.621100   -0.877542
C      -2.531838   -0.150213   -1.102585
C      -3.489833    0.984127   -0.851383
O      -3.693890    1.887303   -1.623227
H       1.145622    1.835654    0.101245
H      -0.493556    2.125463   -0.491612
H      -0.228844    1.731253    1.212155
H       0.342847   -0.181747   -1.139054
H       0.574955   -0.577790    0.557010
H      -1.391246   -1.199566    2.027746
H      -3.082003   -0.758683    1.500760
H      -2.924181   -2.232164   -1.778020
H      -3.983800   -1.761919   -0.426046
H      -2.087191   -0.008531   -2.089806
H      -4.019145    0.944045    0.128426
