23

C      -0.758088    1.082050   -0.179895
C       0.262218   -0.055490   -0.090556
C       1.297515   -0.047755   -1.251856
C       2.634921   -0.473009   -0.663302
C       2.514118   -0.459287    0.857051
C       1.100790   -0.030364    1.219568
C       2.781702   -1.752645    0.136852
C       1.852311   -2.943413    0.073505
O       4.127526   -2.144931    0.325889
H      -0.259559    2.057998   -0.147093
H      -1.331320    1.031478   -1.112057
H      -1.471518    1.043828    0.650518
H      -0.299382   -0.994168   -0.128855
H       0.967133   -0.673492   -2.089375
H       1.402823    0.970213   -1.647841
H       3.542641   -0.116887   -1.139543
H       3.334474   -0.099743    1.468276
H       1.142878    0.992791    1.613327
H       0.644241   -0.646247    2.002908
H       0.801503   -2.669453   -0.021790
H       2.104692   -3.575783   -0.787605
H       1.969293   -3.551649    0.976247
H       4.412994   -2.597893   -0.475764
