18

O       0.092927    1.368085    0.119057
C       0.075069   -0.041971    0.013928
C      -1.353178   -0.573590   -0.051901
C      -1.510377   -2.081569   -0.019805
C      -1.549881   -2.538686    1.422745
C      -2.834715   -2.416051    0.629083
C      -3.181188   -1.117275    1.416601
C      -1.917785   -1.240428    2.192851
N      -2.074486   -0.179332    1.174845
H      -0.563765    1.588113    0.791773
H       0.618405   -0.301644   -0.901068
H       0.599408   -0.520043    0.858169
H      -1.867264   -0.124083   -0.909219
H      -1.104684   -2.732274   -0.784686
H      -1.057726   -3.415313    1.817034
H      -3.519665   -3.180770    0.293620
H      -4.162521   -0.743829    1.678471
H      -1.664105   -0.976936    3.210945
