21

C      -0.038264    1.473103   -0.127026
C       0.049611   -0.028483    0.063275
C      -1.066222   -0.786886   -0.632929
N       1.421153   -0.596447    0.010529
C       0.673780   -0.621160    1.287917
C       1.234758    0.221180    2.420585
C       0.087593   -1.916253    1.825702
N       0.748713   -3.062582    1.457350
O      -0.894109   -1.928357    2.540861
H       0.834024    1.989241    0.274607
H      -0.097889    1.709093   -1.195474
H      -0.936953    1.874074    0.354105
H      -1.066755   -0.557069   -1.704618
H      -0.965935   -1.869211   -0.517307
H      -2.041774   -0.499060   -0.227795
H       1.377222   -1.505758   -0.446283
H       1.660411    1.153853    2.050612
H       0.447434    0.442169    3.146167
H       2.031163   -0.322828    2.941231
H       1.701876   -3.012145    1.135981
H       0.470521   -3.908576    1.932000
