18

C      -0.008406    1.552396    0.055079
C       0.035081    0.052217    0.014834
C      -0.882954   -0.828826    0.809696
C       0.601154   -0.962278    1.022010
C       1.278013   -1.744776   -0.135017
N       0.530926   -2.797312   -0.831356
C      -0.080671   -1.945298   -1.742382
O      -0.898925   -2.136330   -2.600016
C       0.698893   -0.736917   -1.157240
H       0.968863    1.989541   -0.179680
H      -0.731009    1.944723   -0.670455
H      -0.306727    1.909889    1.046002
H      -1.404929   -0.321260    1.615239
H      -1.460559   -1.624256    0.347465
H       1.063024   -0.784192    1.985994
H       2.348742   -1.921010   -0.035228
H       0.248561   -3.722389   -0.537614
H       1.334905   -0.159141   -1.824956
