16

C       0.067751    1.509928    0.009805
C       0.065576    0.000722    0.001900
C       0.050773   -0.732795   -1.192057
O       0.070944   -0.150497   -2.424110
C      -0.000722   -2.127231   -1.151720
N      -0.024852   -2.814855   -0.013202
C       0.012532   -2.139874    1.132473
C       0.064633   -0.745932    1.187741
O       0.098905   -0.177513    2.425953
H       1.078591    1.936939    0.003162
H      -0.469888    1.918458   -0.853169
H      -0.454599    1.909616    0.886158
H       0.223071    0.795232   -2.338390
H      -0.020468   -2.682190   -2.085020
H       0.003408   -2.705119    2.059747
H       0.250983    0.768993    2.349185
