19

C       0.205470    1.522535    0.163918
C      -0.034774    0.019535   -0.058934
C       0.667210   -0.517246   -1.269655
C       0.134453   -0.967143   -2.436358
O       1.094096   -1.367061   -3.307827
C       2.299811   -1.172087   -2.690783
C       2.089992   -0.655637   -1.446043
O       2.972556   -0.308332   -0.479477
C       4.334195   -0.516985   -0.806583
H       1.273305    1.728307    0.277645
H      -0.162797    2.106823   -0.685138
H      -0.308055    1.869492    1.066221
H       0.303915   -0.529515    0.828435
H      -1.109146   -0.174838   -0.152415
H      -0.882715   -1.065259   -2.780411
H       3.172684   -1.445056   -3.255955
H       4.919843   -0.201443    0.058072
H       4.531192   -1.577141   -1.015829
H       4.625367    0.077639   -1.683141
