21

C      -0.400338    1.215806   -0.058161
C       1.083976    1.033560    0.195880
C       0.220787   -0.160979   -0.045478
O       0.022984   -1.008303    1.040937
C      -1.074196   -1.912121    0.898307
C      -0.953835   -3.001737    1.986483
C      -2.389776   -3.244574    2.512763
C      -3.143241   -2.030399    2.025162
C      -2.439484   -1.310424    1.154486
H      -1.011752    1.484010    0.795667
H      -0.723254    1.636765   -1.004473
H       1.790051    1.328182   -0.572136
H       1.430475    1.176760    1.212964
H       0.317376   -0.678415   -1.001628
H      -1.029713   -2.341563   -0.117193
H      -0.470259   -3.909749    1.620058
H      -0.323260   -2.587497    2.778170
H      -2.825317   -4.162579    2.095016
H      -2.429137   -3.359021    3.602144
H      -4.158235   -1.811623    2.340688
H      -2.784136   -0.420386    0.642396
