19

C      -0.152230    1.525652    0.006876
N       0.016348    0.082062    0.021240
C       1.054193   -0.520626   -0.832967
C       2.465268   -0.086401   -0.320314
C       2.214813   -0.105309    1.144315
N       2.712504   -1.345228    0.460072
C       1.236139   -1.662023    0.202049
C       0.711894   -0.554694    1.166836
C      -0.015234   -0.734180    2.469650
H       0.789484    2.075718    0.174630
H      -0.562473    1.834853   -0.960008
H      -0.866618    1.821622    0.781670
H       0.861126   -0.620144   -1.899962
H       3.270561    0.445050   -0.812138
H       2.808299    0.410879    1.889526
H       0.879307   -2.685842    0.125438
H       0.570032   -1.358324    3.152269
H      -0.182742    0.230014    2.964103
H      -0.987658   -1.207746    2.307898
