17

C       0.250320    1.121677    0.337251
O      -0.383839    0.039870   -0.324791
C       0.410432   -0.534188   -1.297384
C       1.470094   -1.551426   -0.992289
C       0.964590   -2.498252    0.095761
O      -0.275693   -2.754222   -0.609983
C       0.144485   -1.962361   -1.700245
C      -0.104384   -2.381000   -3.090025
O      -0.697214   -3.377332   -3.416322
H       1.183869    0.806648    0.823866
H       0.478742    1.941738   -0.359237
H      -0.447963    1.482417    1.094736
H       0.665707    0.118784   -2.136716
H       2.475459   -1.517054   -1.391467
H       1.553338   -3.416664    0.178072
H       0.792306   -2.065460    1.085962
H       0.316146   -1.668739   -3.837662
