23

C       0.123206    1.555747    0.228902
C       0.022306    0.050081    0.066400
C       1.035251   -0.615330   -0.839906
C       1.138464   -0.783882    0.657125
C      -1.364176   -0.559786    0.094401
C      -2.331595   -0.292149    1.286522
C      -3.499838   -0.322835    0.283342
O      -4.510287    0.622370    0.549669
C      -2.484478   -0.046731   -0.859797
H       1.168551    1.877595    0.194018
H      -0.408865    2.087456   -0.567679
H      -0.290123    1.890412    1.186668
H       0.715035   -1.468769   -1.428780
H       1.768639    0.012418   -1.335253
H       1.941637   -0.270297    1.175214
H       0.888036   -1.751188    1.080408
H      -1.261255   -1.643148   -0.037199
H      -2.341337   -0.996819    2.120854
H      -2.223043    0.723958    1.676146
H      -3.917544   -1.336919    0.197005
H      -5.185357    0.542936   -0.131802
H      -2.412196    1.032152   -1.024840
H      -2.619378   -0.551943   -1.819783
