19

C       0.246542    1.505044   -0.043571
C      -0.080932    0.025275    0.052677
O      -0.299928   -0.523344    1.105897
C      -0.135858   -0.716887   -1.284376
O       0.131833   -2.118054   -1.152010
C      -1.069620   -2.712203   -1.686986
C      -1.324927   -1.886902   -2.970956
C      -1.557882   -0.771559   -1.902083
C      -2.197845   -1.893963   -1.019158
H       1.303446    1.629053   -0.308810
H      -0.336666    1.990028   -0.834276
H       0.057749    1.990874    0.914167
H       0.584133   -0.259596   -1.977523
H      -0.983718   -3.796268   -1.651507
H      -0.493622   -1.773430   -3.671246
H      -2.243715   -2.163067   -3.490883
H      -2.053221    0.172774   -2.124568
H      -3.195367   -2.167226   -1.366384
H      -2.159005   -1.791555    0.064945
