14

N      -0.215466    1.147929    0.346963
C      -0.070406   -0.061669    0.022128
N      -1.022701   -0.837370   -0.636069
C      -0.673983   -2.232948   -0.516872
C       0.854405   -2.129519   -0.311981
O       1.047506   -0.829362    0.240925
C      -1.388934   -2.949360    0.626120
O      -2.262730   -2.449736    1.282200
H       0.628244    1.502890    0.790529
H      -1.977309   -0.583117   -0.422478
H      -0.894837   -2.802082   -1.431475
H       1.253280   -2.875241    0.381635
H       1.386687   -2.207909   -1.265857
H      -1.054766   -3.999288    0.793675
