16

C      -0.018450    1.577314   -0.040620
C      -0.081538    0.079616    0.092718
O       1.143536   -0.648244   -0.103329
C       0.583433   -0.638406    1.188471
C       1.298519   -0.178780    2.446707
C       0.356424   -0.190002    3.575276
N       0.956134   -1.493598    3.160634
C       0.232607   -1.912901    1.957619
O      -0.304784   -2.945672    1.721566
H       0.859305    1.981267    0.470118
H       0.033923    1.864466   -1.095513
H      -0.916208    2.034541    0.388408
H      -0.945530   -0.409846   -0.358294
H       2.306644    0.212062    2.486598
H       0.703096    0.128832    4.552915
H      -0.702638   -0.023056    3.392867
