24

C       0.202776    1.513060    0.008880
C       0.068762   -0.009060   -0.087917
C      -1.380865   -0.489638    0.036976
C      -1.508382   -2.011145   -0.058949
C      -2.904383   -2.573147    0.051009
C      -3.068341   -4.075029    0.060983
C      -3.245063   -4.632321    1.485594
N      -3.869817   -1.741230    0.145877
O      -5.117586   -2.388830    0.249649
H       1.246180    1.830547   -0.083823
H      -0.369013    2.010780   -0.782205
H      -0.174364    1.882482    0.968976
H       0.486522   -0.352783   -1.043945
H       0.679435   -0.480244    0.694315
H      -1.805684   -0.150362    0.988974
H      -1.995956   -0.025100   -0.742099
H      -1.078899   -2.363474   -1.009365
H      -0.891644   -2.488330    0.718331
H      -3.944188   -4.338464   -0.538951
H      -2.191379   -4.532716   -0.409256
H      -3.345337   -5.721737    1.462751
H      -2.385719   -4.388326    2.118830
H      -4.141114   -4.212865    1.948244
H      -5.724688   -1.642975    0.289319
