15

O       0.717393    0.984862    0.615068
C       0.316515   -0.263053    0.245125
C       0.552488   -1.585308    1.034481
C      -0.275162   -2.054205   -0.221464
C      -1.192172   -0.806803   -0.027823
C      -2.169425   -0.743143    1.110073
O      -2.323682   -1.581509    1.963921
C       0.634694   -1.097849   -1.006040
O       1.251145   -1.005272   -2.022160
H       0.959375    1.479553   -0.177441
H       1.586173   -1.928572    1.098323
H       0.025553   -1.676926    1.980074
H      -0.598148   -3.060787   -0.460121
H      -1.654562   -0.389686   -0.928602
H      -2.782964    0.185733    1.105778
