15

O      -0.549175    0.439471    0.370788
C       0.026838    1.470725    0.592418
C       1.345240    1.875201   -0.020780
O       2.029764    0.845835   -0.751490
C       2.202003    1.701622   -1.906379
C       1.279078    2.793894   -1.270585
C       0.148690    2.449517   -2.283944
C       1.092344    1.420445   -2.949434
O       1.017743    0.725621   -3.915270
H      -0.395166    2.249971    1.270634
H       1.986978    2.292982    0.770554
H       3.245549    1.810994   -2.211300
H       1.557106    3.838321   -1.158523
H      -0.782956    2.041309   -1.884999
H      -0.094093    3.272921   -2.962512
