15

O      -0.116704    1.431517   -0.017077
C       0.011459    0.068547   -0.000296
C       0.684484   -0.891515    1.046770
C      -0.687296   -1.547414    1.308871
C      -1.255586   -0.875254    0.019189
C      -0.701300   -1.531766   -1.257144
O      -1.199668   -2.166993   -2.139382
C       0.691399   -0.882568   -1.059823
O       1.401018   -1.575032   -0.007205
H       0.758891    1.829810   -0.085845
H       1.336968   -0.635191    1.883434
H      -0.707207   -2.637612    1.373445
H      -1.163222   -1.116711    2.195483
H      -2.289789   -0.534666    0.010460
H       1.321017   -0.627273   -1.914883
