15

C      -0.000317    1.488562    0.046091
C      -0.004448   -0.014421   -0.005133
C      -0.134876   -0.711829   -1.204199
N      -0.143370   -2.050268   -1.247578
C      -0.013996   -2.691323   -0.098975
C       0.121633   -1.997572    1.122536
N       0.308592   -2.663967    2.313815
N       0.118542   -0.664722    1.160685
H       0.938858    1.853908    0.474154
H      -0.122890    1.923268   -0.948785
H      -0.807880    1.851975    0.689703
H      -0.238944   -0.186404   -2.148784
H      -0.014972   -3.779346   -0.124007
H      -0.038047   -3.607965    2.374402
H       0.148309   -2.100656    3.135407
