17

O      -0.079611    1.394203    0.060135
C      -0.041993   -0.016436    0.212942
C      -1.371256   -0.573731   -0.300536
C      -1.469028   -2.059878   -0.143489
N      -1.276736   -2.860623   -1.186485
N      -1.408068   -4.116269   -0.678761
C      -1.679413   -4.112787    0.643273
O      -1.843556   -5.295861    1.274307
C      -1.727417   -2.794859    1.045414
H       0.773534    1.747747    0.327439
H       0.783915   -0.464776   -0.359985
H       0.097839   -0.301249    1.268334
H      -2.183230   -0.076119    0.241672
H      -1.475070   -0.317827   -1.358440
H      -1.326346   -4.918373   -1.279423
H      -2.035434   -5.125738    2.201527
H      -1.926018   -2.418467    2.036048
