19

O      -0.024416    1.415171   -0.052511
C       0.081049    0.013573    0.029656
C       0.015291   -0.617205    1.453640
C      -1.536798   -0.254540    1.418956
C      -1.310293   -0.663873   -0.053670
O      -1.992462   -0.818174   -1.305743
C      -1.253555   -2.075610   -1.495109
C      -1.013843   -2.143979    0.039866
C       0.162673   -2.122624    1.053342
H       0.814351    1.793581    0.228834
H       0.874006   -0.364249   -0.630289
H       0.637637   -0.235018    2.263126
H      -2.232248   -0.860926    2.003331
H      -1.678266    0.808759    1.601142
H      -1.888318   -2.848237   -1.935536
H      -0.364353   -1.919074   -2.116514
H      -1.873585   -2.664670    0.469813
H       1.153780   -2.316417    0.631459
H       0.007513   -2.821254    1.878736
