20

C      -1.070163    1.178248    1.139081
C      -1.295828    0.263148   -0.041629
O      -0.912644    0.532186   -1.160179
C      -2.049964   -1.050184    0.205675
C      -1.172513   -2.275383   -0.049789
C      -0.213634   -2.628922    1.067186
O       0.747013   -1.598317    1.252307
C      -1.644786   -3.325916   -0.989224
N      -0.551221   -2.422979   -1.379059
H      -0.584191    2.099636    0.815889
H      -2.020832    1.408805    1.633297
H      -0.438383    0.655042    1.864509
H      -2.456243   -1.087996    1.221234
H      -2.894393   -1.055334   -0.492077
H      -0.739391   -2.733124    2.022592
H       0.271783   -3.587538    0.837821
H       1.198578   -1.501054    0.404355
H      -1.353191   -4.362784   -0.842957
H      -2.623815   -3.194156   -1.443215
H      -0.876555   -1.674410   -1.986308
