16

C       0.450840    1.335208   -0.044180
N       0.055409   -0.058205   -0.073458
C       0.714293   -1.126769   -0.582926
C      -0.118838   -2.191342   -0.334791
C       0.042344   -3.651394   -0.656151
C       1.292251   -3.961170   -1.341427
C       2.323487   -4.209867   -1.905758
N      -1.228004   -1.725586    0.304387
N      -1.121488   -0.436840    0.461694
H       1.377542    1.462240    0.522198
H       0.592911    1.717512   -1.058683
H      -0.352415    1.887024    0.443740
H       1.676602   -1.053140   -1.059230
H      -0.024198   -4.233257    0.272234
H      -0.806575   -3.980399   -1.269307
H       3.231024   -4.444303   -2.404694
