15

C       0.065389    1.588033    0.061163
O       1.488251    1.970048    0.056901
C       1.925624    0.841121    0.711366
N       1.986941    0.771806    1.977760
C       1.405561   -0.544693    2.330064
C       0.677686   -0.987426    1.050781
C       0.030132    0.025333    0.026676
C       1.457626   -0.388923   -0.062874
H      -0.398977    2.025606    0.949740
H      -0.383981    1.997853   -0.847016
H       2.150429   -1.295035    2.629220
H       0.747233   -0.375647    3.189092
H       0.280492   -1.995857    0.986134
H      -0.729994   -0.420647   -0.606519
H       1.991953   -0.844164   -0.886207
