14

C      -0.023933   -1.211687   -0.081445
C      -0.025410   -0.009046   -0.051612
C      -0.024907    1.410805   -0.012456
C      -0.477689    2.357129    1.152111
O       0.881806    2.694190    1.489168
C       1.196078    2.384987    0.117679
C       0.341908    3.309703   -0.781460
C      -0.922453    3.288463   -0.000250
N      -0.708869    2.283362   -1.095961
H      -0.023501   -2.273436   -0.108997
H      -1.118741    2.115584    1.995742
H       2.242805    2.171542   -0.081836
H       0.635086    4.072071   -1.490188
H      -1.705818    4.032704   -0.043849
