19

C      -0.184736    1.456533    0.038882
C       0.148577   -0.005388   -0.033690
O      -0.691229   -0.901851    0.735948
C       0.716644   -0.817236    1.044759
C       1.491078   -1.992101    0.472310
O       1.333469   -3.191721    1.206270
C       1.001463   -2.067292   -0.995569
C       0.517927   -0.646299   -1.371082
O      -0.538980   -0.610588   -2.312454
H       0.681932    2.063537   -0.243818
H      -0.996463    1.690009   -0.657091
H      -0.495931    1.734752    1.048341
H       0.951680   -0.422085    2.030131
H       2.563122   -1.766961    0.515889
H       0.385163   -3.357394    1.268915
H       1.766046   -2.446759   -1.675470
H       0.150703   -2.754353   -1.045862
H       1.328384   -0.067421   -1.829499
H      -1.288747   -1.060190   -1.904128
