14

O      -0.080737    0.052140    0.094734
C      -0.070521    1.245999    0.099104
C      -1.141790    2.339339   -0.085709
C      -0.874743    3.231385    1.137094
N       0.478898    3.584852    0.560608
C       0.023674    3.156579   -0.763571
C       1.025927    2.288683   -0.007580
C       2.424169    2.124190   -0.166455
C       3.603743    1.938569   -0.304001
H      -2.124725    2.092761   -0.475771
H      -1.468726    4.147470    1.159997
H      -0.855919    2.763538    2.126624
H       0.162833    3.676897   -1.700710
H       4.647133    1.779534   -0.422457
