16

C      -0.051092    1.404226   -0.299626
N      -0.024626   -0.044112   -0.312866
C      -1.079399   -0.666456    0.038375
N      -2.267897   -0.069422    0.437928
N      -3.436248   -0.674002    0.826389
C      -3.413996   -1.953414    0.815488
N      -2.321027   -2.706679    0.448129
C      -1.096845   -2.168528    0.039977
N      -0.073225   -2.838494   -0.304560
H       0.920095    1.786530   -0.621919
H      -0.812359    1.819846   -0.981371
H      -0.250987    1.814894    0.704588
H      -2.319976    0.934311    0.456847
H      -4.303987   -2.494211    1.111312
H      -2.397346   -3.712371    0.471530
H      -0.248438   -3.844205   -0.248920
