21

C       0.090960    1.257824   -0.390728
C       1.404509    0.619084   -0.050805
C       2.343215    1.103486    1.043476
C       1.897246    0.921345    2.511386
C       0.703831    1.722842    2.938569
C      -0.560606    1.278504    2.925515
C      -0.983853   -0.031897    2.441689
C      -0.632908   -0.651403    1.301726
C       0.097584   -0.182754    0.095375
H      -0.297409    1.998128    0.297660
H      -0.156498    1.439589   -1.431585
H       1.962145    0.283111   -0.921884
H       3.289173    0.560175    0.930502
H       2.581373    2.160095    0.865275
H       1.696259   -0.142161    2.676793
H       2.750328    1.192895    3.144672
H       0.897988    2.724359    3.318317
H      -1.337864    1.906563    3.359535
H      -1.678547   -0.565497    3.089914
H      -1.034072   -1.655568    1.173199
H      -0.001690   -0.907266   -0.707774
