15

C       0.066830    1.544213   -0.007648
C       0.182539    0.034808    0.087930
O       0.460495   -0.470617   -1.220227
C       0.557686   -1.863526   -1.302260
C       0.637579   -2.206705   -2.807883
O       0.367863   -3.283006   -3.253548
C       1.751381   -2.393433   -0.608913
N       2.695556   -2.783309   -0.068553
H       1.001121    1.978567   -0.373149
H      -0.738419    1.828560   -0.690453
H      -0.148634    1.964810    0.978629
H       0.988733   -0.256735    0.775420
H      -0.752561   -0.412090    0.459313
H      -0.327954   -2.373030   -0.890726
H       0.957593   -1.340731   -3.422078
