17

C       0.037318    1.592863    0.132709
C      -0.007038    0.069874    0.022636
O       0.752660   -0.545966    1.062163
C      -1.434672   -0.510470    0.001361
C      -2.220464   -0.150954   -1.272781
C      -1.346732   -2.024176    0.112800
O      -1.964761   -2.692932    0.898946
H       1.076419    1.925219    0.201899
H      -0.421711    2.079691   -0.732505
H      -0.492138    1.933620    1.030884
H       0.505740   -0.237272   -0.898366
H       0.333911   -0.332744    1.904204
H      -1.985059   -0.157722    0.883340
H      -3.223850   -0.584998   -1.244082
H      -2.326644    0.931580   -1.380051
H      -1.713926   -0.529683   -2.167826
H      -0.668921   -2.494586   -0.637741
