23

C      -0.228864    1.601822    0.089794
C      -0.038787    0.094261   -0.099432
C      -1.370292   -0.662732   -0.133948
C      -1.285814   -2.183701   -0.080575
C      -0.078605   -2.898872   -0.522704
O      -0.336859   -2.708615    0.869585
C      -2.633964   -2.846378   -0.092406
C      -3.267827   -3.287541   -1.393261
C      -2.842989   -4.309374   -0.370730
H       0.732628    2.124370    0.101133
H      -0.832140    2.033151   -0.717165
H      -0.738109    1.820801    1.034877
H       0.514448   -0.082415   -1.029919
H       0.573724   -0.311226    0.713003
H      -1.981899   -0.343645    0.722377
H      -1.942124   -0.383320   -1.028518
H      -0.142454   -3.927394   -0.873294
H       0.765883   -2.340665   -0.921937
H      -3.317321   -2.411192    0.633203
H      -4.325729   -3.103745   -1.544075
H      -2.667648   -3.201421   -2.293182
H      -1.984111   -4.931328   -0.592429
H      -3.612288   -4.816915    0.200354
