17

O       0.016755    1.404951   -0.060972
C       0.002045   -0.006433   -0.019169
C       0.908249   -0.667177   -1.110438
N       1.689108   -1.249380   -0.007206
C       1.030388   -0.593234    0.996380
O       1.214088   -0.459105    2.177608
C      -1.402586   -0.561499    0.071219
C      -2.436668    0.140707    0.865174
N      -2.501046    0.139266   -0.608033
H       0.184800    1.717275    0.836299
H       0.424278   -1.403466   -1.757130
H       1.452450    0.071692   -1.704180
H       2.577816   -1.728971   -0.003273
H      -1.450481   -1.646152   -0.003343
H      -3.213063   -0.431163    1.364074
H      -2.156786    1.064383    1.362953
H      -2.143456    1.034978   -0.937530
