19

O       0.141784    1.183933   -0.342515
C       0.018699   -0.140192    0.138718
C      -1.442972   -0.543746    0.223487
O      -2.078310   -0.498175   -1.104884
C      -2.725574   -1.800252   -0.866181
C      -2.474955   -3.028454   -1.753430
C      -2.001026   -4.096947   -0.707009
C      -1.324536   -3.243136    0.367892
C      -1.804663   -2.007494    0.289846
H      -0.332042    1.210487   -1.182460
H       0.550818   -0.860267   -0.500374
H       0.473281   -0.164091    1.135416
H      -1.982598    0.119912    0.911859
H      -3.788948   -1.632239   -0.650051
H      -3.341825   -3.347965   -2.338067
H      -1.654247   -2.805855   -2.442639
H      -2.848466   -4.675769   -0.315718
H      -1.306210   -4.822470   -1.142127
H      -0.514170   -3.604565    0.989618
