14

N       0.010823    1.317819   -0.240654
C       0.073944   -0.019217    0.017445
O       1.109342   -0.617864    0.232047
C      -1.225273   -0.681653    0.012652
C      -2.268315   -1.284916    0.024660
C      -3.513925   -2.067679    0.048999
O      -3.280925   -3.454673   -0.148583
C      -4.265217   -1.792337    1.283243
C      -4.876327   -1.597142    2.298439
H       0.868122    1.845718   -0.240129
H      -0.863925    1.786860   -0.396818
H      -4.130001   -1.769337   -0.809363
H      -2.716637   -3.760605    0.571679
H      -5.420187   -1.421919    3.194111
