18

O       0.151178    1.438862    0.063907
C       0.073003    0.051629    0.090048
C      -0.329620   -0.658177    1.351144
C      -1.289290   -0.631475    0.172109
C      -2.507954    0.196846    0.182910
C      -2.874143    1.311522    0.920500
C      -4.148328    1.744713    0.453884
C      -4.526561    0.894528   -0.555141
N      -3.526095   -0.033454   -0.713501
H      -0.743729    1.785676   -0.067903
H       0.823458   -0.416173   -0.542511
H       0.137799   -1.604781    1.600574
H      -0.577875   -0.033500    2.202319
H      -1.386865   -1.559391   -0.385084
H      -2.307086    1.742325    1.731531
H      -4.719733    2.581210    0.825215
H      -5.414464    0.862840   -1.165568
H      -3.527394   -0.775638   -1.391668
