18

O      -0.109104    1.017147   -1.689731
C      -0.008956    1.426129   -0.545266
C      -1.275070    1.521982    0.319386
N      -1.365635    2.637443    1.244635
C      -0.575395    2.649622    2.429703
C       0.037065    1.423055    3.003270
C       0.965346    2.494227    2.424860
C       1.705337    2.282972    1.179231
C       1.309926    1.852430   -0.036846
H      -2.111114    1.577766   -0.383728
H      -1.407250    0.584532    0.869391
H      -1.290303    3.521112    0.753971
H      -0.932826    3.382052    3.148981
H       0.030892    1.304075    4.080824
H      -0.013779    0.490434    2.455646
H       1.502858    3.077762    3.165329
H       2.762097    2.533957    1.259054
H       2.070319    1.762247   -0.808264
