19

C      -0.081872    1.578748    0.117122
C      -0.063521    0.072985    0.098819
O       1.169270   -0.576533   -0.296654
C       0.763923   -0.724083    1.041616
C       1.541841   -0.217336    2.261836
C       0.950987   -1.415701    3.064364
C       0.473211   -2.064985    1.731268
C      -1.269181   -0.607192   -0.474286
O      -2.329218   -0.062664   -0.655153
H       0.820804    1.975213    0.584850
H      -0.146797    1.969561   -0.902647
H      -0.960180    1.934755    0.662434
H       2.620512   -0.302342    2.101312
H       1.318374    0.789521    2.621360
H       1.657179   -1.995222    3.660203
H       0.117187   -1.116118    3.702616
H      -0.546982   -2.452263    1.697150
H       1.155613   -2.840603    1.371288
H      -1.097726   -1.674883   -0.730945
