19

C      -0.073185    1.534789    0.013836
C      -0.028196    0.026112   -0.010639
C       0.010118   -0.677780   -1.217173
C       0.080486   -2.064635   -1.237884
C       0.112043   -2.780012   -0.042942
O       0.177910   -4.142735   -0.130525
C       0.070335   -2.107979    1.187293
C       0.095966   -2.882207    2.482075
C      -0.000076   -0.714247    1.172217
H       0.933979    1.970295   -0.006523
H      -0.612822    1.932186   -0.851288
H      -0.566736    1.906146    0.917078
H      -0.017198   -0.133784   -2.156904
H       0.107213   -2.614604   -2.171972
H       0.190881   -4.517987    0.755034
H       1.009655   -3.483437    2.587319
H       0.056467   -2.207270    3.340165
H      -0.757770   -3.568054    2.572210
H      -0.035680   -0.190346    2.124505
