22

C      -0.450025    1.453217    0.189208
C      -0.015838    0.001392    0.013657
C      -1.176571   -0.858621   -0.495268
C       1.289577   -0.217740   -0.823543
C       1.851824   -1.145135    0.290961
C       0.724724   -0.658423    1.208916
C       0.922784   -0.068250    2.575534
C       0.145930   -1.354506    2.403748
H       0.373841    2.074947    0.553259
H      -0.793437    1.873064   -0.763633
H      -1.278705    1.542020    0.902364
H      -1.544188   -0.485309   -1.458242
H      -0.872661   -1.901443   -0.632801
H      -2.016314   -0.848788    0.208833
H       1.156125   -0.663126   -1.812966
H       1.868909    0.703089   -0.932637
H       1.776494   -2.208347    0.041519
H       2.873924   -0.942969    0.622897
H       1.915043   -0.121217    3.013640
H       0.368381    0.825989    2.842214
H      -0.929183   -1.319389    2.552427
H       0.606354   -2.283113    2.727619
