14

C       0.219375    1.653671    0.466111
C      -0.123290    0.315293   -0.196022
C       0.478877   -0.845729    0.602398
O       1.095231   -1.758055    0.124544
C      -1.642298    0.099633   -0.261464
O      -2.418806    0.730097    0.421008
C      -2.080640   -0.929766   -1.182022
C      -2.422699   -1.787516   -1.954000
H       1.302601    1.798530    0.501445
H      -0.225068    2.480922   -0.092183
H      -0.176680    1.695342    1.483548
H       0.279788    0.232970   -1.209780
H       0.296986   -0.771201    1.698299
H      -2.735132   -2.545636   -2.630996
