20

O       0.208450    1.414887   -0.216502
C       0.107960    0.058733    0.172428
C      -1.315453   -0.482808    0.003744
C      -2.236220    0.053231    1.096333
O      -2.293901    1.477912    0.988431
C      -1.956758   -0.396764   -1.410154
C      -2.110374   -1.913782   -1.329280
C      -0.808274   -2.568623   -1.124615
N      -1.479763   -1.992691    0.057483
H      -0.507629    1.878829    0.238512
H       0.808897   -0.493179   -0.460188
H       0.429132   -0.097445    1.216841
H      -3.235469   -0.389106    0.982505
H      -1.839599   -0.256821    2.073641
H      -2.764781    1.826152    1.750621
H      -2.896126    0.157857   -1.416419
H      -1.321553   -0.018429   -2.214700
H      -3.009868   -2.472520   -1.566609
H      -0.786557   -3.653495   -1.087706
H       0.096523   -2.116207   -1.521506
