23

C      -0.077959    1.550724   -0.260884
C      -0.013028    0.026540   -0.185673
C       1.241140   -0.593176   -0.858767
O       1.833645    0.216531   -1.849450
C       1.913758   -0.696017    0.535532
C       0.503028   -0.539849    1.168903
C       0.343477    0.138881    2.552526
C       0.193456   -1.269265    3.189789
C      -0.117933   -1.829450    1.776730
H       0.846770    2.017010    0.091630
H      -0.236212    1.879919   -1.291385
H      -0.902224    1.931459    0.351057
H      -0.966055   -0.397266   -0.521433
H       1.012358   -1.592607   -1.255922
H       2.633080   -0.221191   -2.158124
H       2.483503   -1.600520    0.769584
H       2.541852    0.181137    0.720789
H       1.166006    0.771744    2.897582
H      -0.586074    0.713761    2.617384
H       1.145513   -1.643879    3.575818
H      -0.567162   -1.397266    3.963431
H      -1.195831   -1.880040    1.588865
H       0.327948   -2.788455    1.496096
