17

C      -0.455461    1.365699   -0.010361
C       0.046973   -0.072313   -0.004265
C       1.336049   -0.386441   -0.795800
O       1.728211   -0.056704   -1.877193
C       1.947194   -1.176413    0.374749
C       0.773747   -0.664190    1.226920
C       0.816468   -0.097411    2.590818
N       0.187753   -1.412034    2.330539
H       0.324056    2.057465    0.322676
H      -0.752941    1.655911   -1.022216
H      -1.323664    1.489600    0.645548
H      -0.745915   -0.756386   -0.340848
H       1.926935   -2.259556    0.212435
H       2.958724   -0.882528    0.667484
H       1.735503   -0.139009    3.169761
H       0.176489    0.751571    2.818028
H      -0.825501   -1.314616    2.324353
