21

C      -0.540621    1.194488    0.394366
C      -0.702926   -0.112453   -0.383689
C       0.389551   -0.306043   -1.446221
O       1.629783   -0.377052   -0.789371
C       2.749127   -0.253625   -1.641136
C       0.047336   -1.539921   -2.291853
O      -0.788980   -1.533718   -3.160755
O       0.744935   -2.628181   -1.925105
C       0.429129   -3.825795   -2.648408
H       0.433634    1.231952    0.887163
H      -0.618235    2.061583   -0.270954
H      -1.317612    1.289316    1.158638
H      -0.662959   -0.968115    0.300549
H      -1.672497   -0.144126   -0.890720
H       0.366010    0.545452   -2.145984
H       2.821579   -1.091894   -2.347149
H       2.719491    0.687558   -2.211218
H       3.636678   -0.253051   -1.004246
H      -0.622731   -4.089753   -2.513847
H       0.622448   -3.693346   -3.715880
H       1.074696   -4.600387   -2.234879
