17

N       0.093246   -1.156655    0.009059
C       0.067023    0.000613    0.028159
C       0.025751    1.430806    0.064808
C       0.305333    2.238835   -1.196210
C       1.295288    2.287531   -0.072620
C       1.234734    3.405760    0.973119
C      -0.116373    3.276039    1.669551
N      -1.281195    3.455333    0.778813
C      -0.838334    2.094617    1.129793
H       0.587411    1.675075   -2.077881
H      -0.349476    3.085275   -1.359548
H       2.246753    1.792144   -0.228229
H       2.032927    3.258549    1.708015
H       1.372162    4.397195    0.529563
H      -0.206277    3.578485    2.708063
H      -2.103187    3.700511    1.324554
H      -1.473958    1.460766    1.736529
