19

C       0.032909    1.544034   -0.154111
C      -0.029821    0.026073    0.039332
C      -1.457931   -0.557286    0.087752
C      -2.312370    0.021168    1.222206
O      -2.114299   -0.263770   -1.165299
C      -2.440714   -1.420713   -1.827869
O      -2.988471   -1.424033   -2.893801
C      -1.993002   -2.555065   -0.981863
C      -1.430139   -2.066278    0.119676
H       1.071347    1.865562   -0.275713
H      -0.523049    1.842270   -1.046622
H      -0.379682    2.084510    0.702688
H       0.498744   -0.470946   -0.781523
H       0.485563   -0.260998    0.964391
H      -2.437441    1.098520    1.096773
H      -3.302190   -0.441852    1.223688
H      -1.838500   -0.164754    2.191060
H      -2.135720   -3.583874   -1.277979
H      -0.998236   -2.617028    0.946221
