12

N       0.030459    1.321411    0.188920
C      -0.054501   -0.018444    0.055622
C      -1.143414   -0.869725    0.004274
C      -2.502986   -0.513321    0.024576
N      -3.611590   -0.173232    0.039729
C      -0.521973   -2.153476   -0.081668
O      -1.190380   -3.304841   -0.153320
N       0.784144   -2.100770   -0.086795
O       1.081925   -0.706681    0.002171
H       0.910251    1.758433   -0.034334
H      -0.801912    1.860949    0.013509
H      -0.545872   -4.024254   -0.203803
