15

C       0.012535    1.547526    0.019213
C       0.119655    0.050553    0.026996
N      -0.787465   -0.807151    0.845520
C       0.663298   -0.819192    1.095061
C       1.321606   -1.998469    0.408503
O       1.021902   -1.856772   -0.992431
C       0.429171   -0.662293   -1.268263
O       0.231316   -0.277301   -2.383988
H       0.936965    2.005291   -0.345431
H      -0.796284    1.863436   -0.646145
H      -0.187975    1.931654    1.024201
H      -1.238833   -0.206352    1.534240
H       1.068086   -0.428452    2.021782
H       2.409865   -1.988742    0.532860
H       0.922809   -2.959208    0.745015
