16

O      -0.058943    0.013121    0.301803
C      -0.028865    1.188143    0.085515
O      -1.156371    1.939608   -0.124794
C      -0.867385    3.348148   -0.092605
C       0.670183    3.432210   -0.032448
C       1.452010    3.700419    1.264690
C       1.066050    2.725845    2.351578
C       1.915518    2.247568    1.213306
N       1.100770    2.016411   -0.001940
H      -1.278200    3.801292   -0.997988
H      -1.357263    3.790812    0.781036
H       1.091516    3.968929   -0.886655
H       2.038536    4.588257    1.456623
H       1.597736    2.869054    3.286672
H       0.045340    2.372290    2.470532
H       2.898739    1.808178    1.309788
