20

O       0.124628    1.193947   -0.466230
C       0.022821   -0.169799   -0.130963
C       0.213441   -0.513595    1.370640
N      -1.224463   -0.947645    1.527075
C      -1.400319   -0.713629    0.023657
C      -1.406991   -2.068537    0.604319
C      -0.483671   -3.259277    0.295938
C      -1.764205   -4.096345   -0.000531
C      -2.628510   -2.990110    0.671974
H      -0.440135    1.692485    0.135667
H       0.663339   -0.692414   -0.847854
H       0.943914   -1.285956    1.633444
H       0.407390    0.379258    1.971190
H      -2.289356   -0.243860   -0.390548
H       0.240050   -3.148295   -0.515373
H       0.042508   -3.610375    1.189452
H      -1.959830   -4.182380   -1.071767
H      -1.809273   -5.092270    0.443314
H      -2.889654   -3.225461    1.707523
H      -3.530217   -2.666027    0.146936
