13

F       0.110969    0.040744   -0.335377
C      -0.050650    1.327871   -0.055650
C      -1.231398    1.932730    0.078646
N      -1.250939    3.292457    0.373955
C      -0.129417    4.079081    0.541734
N      -0.223137    5.321245    0.811550
C       1.205804    3.374676    0.385317
O       2.258166    3.963131    0.510785
N       1.137271    2.028463    0.093380
H      -2.171151    1.416500   -0.030944
H      -2.133841    3.767801    0.479200
H       0.721173    5.700698    0.891459
H       2.014204    1.537118   -0.015390
