21

C       0.072668    1.503618   -0.081032
C      -0.097269    0.005249    0.060626
C      -0.347118   -0.593019    1.403816
N       0.985639   -0.670185    0.803385
C       1.469577   -1.956944    0.306668
C       0.442380   -2.877780   -0.389215
C      -0.374216   -2.118106   -1.421319
N      -1.722335   -1.691001   -1.007963
C      -0.662611   -0.677159   -1.163453
H       0.704536    1.749313   -0.942829
H      -0.896908    1.994859   -0.224256
H       0.546738    1.917909    0.811506
H      -0.423546    0.055382    2.273738
H      -0.974456   -1.478463    1.439254
H       2.278835   -1.730833   -0.399555
H       1.925669   -2.486747    1.150370
H       0.984792   -3.701904   -0.863894
H      -0.233185   -3.328378    0.344258
H      -0.241602   -2.414858   -2.458699
H      -2.345751   -1.664260   -1.810381
H      -0.727960   -0.025980   -2.031988
