14

O      -0.081429    1.447437   -0.002347
C       0.002022    0.035722    0.010274
C       0.685946   -0.514933   -1.274234
C       0.003444   -0.077578   -2.488496
N      -0.540423    0.254836   -3.451663
C       0.689557   -0.476488    1.195143
C       1.292785   -0.875100    2.165805
C       1.964591   -1.323783    3.260372
C       2.562477   -1.721741    4.230531
H       0.792501    1.805545    0.192181
H      -1.037976   -0.310649    0.014558
H       1.728011   -0.177884   -1.301271
H       0.702091   -1.609329   -1.240880
H       3.086021   -2.072192    5.085692
