24

C      -0.116597    1.485331   -0.296561
N       0.174507    0.082914   -0.048363
C       1.452491   -0.538121   -0.292809
C       2.632130    0.339222    0.163060
C       2.076153    0.298261    1.631636
C       2.964849   -0.602479    2.499615
C       1.823068    1.615520    2.368781
C       0.842470   -0.504489    1.096428
C       0.089053   -1.547161    1.876763
H       0.746344    2.163399   -0.266135
H      -0.564923    1.568160   -1.292822
H      -0.854886    1.836472    0.431150
H       1.510763   -1.352640   -1.009191
H       3.600541   -0.158011    0.069648
H       2.707200    1.322965   -0.310706
H       3.932786   -0.121392    2.679632
H       2.505691   -0.799008    3.474839
H       3.154552   -1.566961    2.017084
H       1.225898    2.321553    1.791027
H       1.298485    1.433014    3.314095
H       2.772231    2.106737    2.614814
H      -0.539469   -1.083285    2.647278
H      -0.568117   -2.107102    1.206873
H       0.761031   -2.250256    2.377778
