13

O       0.066383    0.074900    0.019330
C       0.014934    1.264841   -0.041836
C      -1.091472    2.283539    0.022619
C      -0.125984    3.212702    0.796739
C       1.046573    2.409875    0.094424
N       0.826810    3.141107   -1.206630
C      -0.480599    3.542459   -0.621797
C      -1.299339    4.587909   -1.145361
N      -1.946187    5.451290   -1.562025
H      -2.158688    2.166776    0.146259
H      -0.271871    3.700002    1.750030
H       2.063992    2.253172    0.437861
H       1.416545    3.973793   -1.198177
