18

C      -0.170294    1.363456    0.027728
O       0.057496   -0.023497   -0.040189
C       0.615254   -0.546203    1.143220
C       0.834726   -2.047511    0.941762
C       1.407544   -2.704763    2.156974
N       2.712027   -2.646174    2.449943
N       2.801017   -3.312877    3.592928
N       1.675668   -3.811266    4.082549
C       0.769654   -3.431710    3.180703
H       0.763354    1.923724    0.194995
H      -0.600606    1.672171   -0.928077
H      -0.873791    1.623987    0.834749
H       1.574944   -0.056296    1.376261
H      -0.056216   -0.370308    2.001495
H      -0.123288   -2.510095    0.685113
H       1.504956   -2.188849    0.088841
H       3.684407   -3.448369    4.057278
H      -0.270599   -3.692342    3.296263
