19

C       0.157514    1.187044    0.233867
O      -0.246183   -0.075190   -0.248870
C       0.543448   -0.554721   -1.294557
C       1.898136   -1.241983   -0.819732
C       1.080744   -2.514495   -0.791798
C       0.519507   -3.370722    0.051945
C      -0.923635   -3.570776   -0.383493
O      -1.178089   -2.560866   -1.381159
C       0.055083   -1.995353   -1.742840
H       1.172407    1.166147    0.658154
H       0.132331    1.949901   -0.559735
H      -0.546079    1.470325    1.020108
H       0.649239    0.193935   -2.093751
H       2.660128   -1.205157   -1.604029
H       2.328664   -0.900191    0.123257
H       0.905423   -3.747242    0.990752
H      -1.135197   -4.564564   -0.808647
H      -1.610632   -3.419316    0.460151
H       0.250414   -2.131297   -2.816112
