16

O      -0.019248    1.471445   -0.095019
C       0.034401    0.061921   -0.119930
C      -1.332566   -0.525198    0.221456
O      -2.297310   -0.097834   -0.748626
C      -2.734417   -1.239218   -1.449774
O      -2.646774   -2.317749   -0.541864
C      -1.463933   -2.082587    0.201515
C      -0.308448   -2.773583   -0.408093
N       0.587947   -3.328843   -0.880441
H      -0.713050    1.731584   -0.712329
H       0.368535   -0.320461   -1.095837
H       0.774566   -0.244345    0.626911
H      -1.653489   -0.137310    1.193609
H      -3.779657   -1.113920   -1.741690
H      -2.104215   -1.426753   -2.334901
H      -1.611226   -2.487109    1.205724
