17

C      -0.582396    1.252587   -0.156723
C      -0.360851   -0.198658   -0.516374
C       0.473027   -0.756087   -1.599583
C       1.762437    0.012938   -1.903938
C       1.804578    1.313133   -2.697068
C       1.988676   -0.040867   -0.381748
O       2.796716    0.396429    0.377330
N       0.878169   -0.945817   -0.122335
H      -1.395561    1.668181   -0.760932
H      -0.871967    1.328917    0.896138
H       0.304071    1.872584   -0.297200
H      -1.226683   -0.819159   -0.290681
H       0.145401   -1.620194   -2.167446
H       2.484124   -0.694394   -2.333619
H       1.065419    2.038847   -2.351534
H       2.794759    1.770772   -2.609603
H       1.615120    1.123305   -3.758310
