18

O       0.104788    1.489958   -0.100319
C       0.021567    0.090615   -0.034262
C       0.010684   -0.602561    1.359802
C      -1.427866   -0.139139    1.686648
C      -1.982062   -1.561980    1.755326
C      -3.234880   -1.631640    0.852601
C      -2.766326   -0.780259   -0.389469
C      -1.395630   -0.452573    0.152484
N      -0.823875   -1.759548    0.772736
H       1.034551    1.737455   -0.103100
H       0.624633   -0.413164   -0.801700
H       0.846409   -0.791657    2.035648
H      -1.761930    0.783970    2.167692
H      -1.982660   -2.172864    2.661276
H      -3.464239   -2.663663    0.573784
H      -4.117154   -1.207574    1.340968
H      -2.731493   -1.369199   -1.308893
H      -3.384060    0.104599   -0.558675
