19

C       0.018717    1.488588   -0.010272
C      -0.028459   -0.003719    0.004206
C      -1.062232   -0.814465    0.227802
C      -0.623312   -2.220998    0.127308
C      -1.141422   -3.342694    1.008314
C      -1.457047   -3.313632   -0.475128
O      -2.742307   -2.969820   -0.904773
O       0.757548   -2.203813   -0.166876
C       1.193163   -0.848894   -0.265217
H       0.724823    1.872419    0.737259
H       0.358921    1.865444   -0.983284
H      -0.962983    1.921882    0.196525
H      -2.084923   -0.530458    0.432058
H      -0.418321   -4.072035    1.357041
H      -1.943457   -3.104146    1.699521
H      -0.919363   -4.024016   -1.103544
H      -3.332041   -3.698764   -0.683112
H       1.613641   -0.662553   -1.266978
H       2.000310   -0.665002    0.462326
