19

C       0.018765    1.630284   -0.065433
C       0.065619    0.119502    0.001134
C       0.572207   -0.670625   -1.239499
C       0.514316   -1.972680   -0.922652
C      -0.024732   -1.911584    0.496326
C      -0.505650   -2.498991    1.843061
C      -0.642798   -0.945765    2.010104
C       0.662067   -0.692329    1.197625
C      -1.101848   -0.776386    0.531057
H       1.014121    2.051028   -0.249069
H      -0.638340    1.972268   -0.873358
H      -0.355416    2.056505    0.871230
H       0.901954   -0.222925   -2.168220
H       0.778751   -2.837585   -1.513441
H      -1.436310   -3.075259    1.829602
H       0.246036   -2.995100    2.465347
H      -0.999560   -0.404243    2.885895
H       1.688999   -0.690173    1.574061
H      -2.117204   -0.871560    0.135718
