17

C      -0.041280    1.528966   -0.231441
C      -0.044290    0.081020    0.271892
C      -1.407337   -0.567639    0.165460
C      -1.862568   -1.208505   -1.113448
C      -1.566023   -2.083787    0.098351
C      -0.425547   -2.952219    0.104246
C       0.524470   -3.691036    0.120165
H       0.953777    1.975542   -0.141640
H      -0.341083    1.581727   -1.283341
H      -0.737830    2.150729    0.342023
H       0.682979   -0.513260   -0.291896
H       0.288337    0.052644    1.317331
H      -2.184561   -0.072576    0.743467
H      -2.898377   -1.113145   -1.419441
H      -1.151713   -1.259865   -1.931049
H      -2.434948   -2.485186    0.612080
H       1.361374   -4.343909    0.130825
