19

C      -0.344560    1.617400    0.073720
C      -0.127564    0.112250    0.035283
C      -1.387288   -0.636152   -0.388833
O      -1.723656   -0.215646   -1.701703
C       1.133798   -0.394844   -0.700761
O       1.581069   -1.128058    0.461939
C       0.526556   -0.574785    1.285162
C       1.015415    0.280986    2.354963
C       1.411854    0.983246    3.246786
H       0.567147    2.141837    0.369491
H      -0.654250    1.971935   -0.912757
H      -1.129766    1.881917    0.790451
H      -1.195756   -1.720417   -0.357426
H      -2.200113   -0.419579    0.324355
H      -2.494241   -0.711502   -1.992641
H       0.958068   -1.048811   -1.561023
H       1.845944    0.390852   -0.981707
H      -0.085767   -1.377652    1.719524
H       1.766726    1.599139    4.036024
