17

O      -0.788519    0.981519   -1.056837
C      -0.069543    0.102035   -0.157864
C      -1.117664   -0.809948    0.487777
C      -1.474299   -2.054048   -0.333610
O      -2.192113   -2.916897    0.106196
C      -0.858781   -2.129031   -1.740766
O      -1.606668   -1.285268   -2.616632
C       0.600817   -1.736278   -1.664819
C       0.971622   -0.697508   -0.912424
H      -0.139007    1.493269   -1.552618
H       0.404546    0.714501    0.618969
H      -0.749983   -1.167544    1.454640
H      -2.030875   -0.240761    0.688423
H      -0.990790   -3.146701   -2.112344
H      -1.470206   -0.373102   -2.311785
H       1.323149   -2.297156   -2.250351
H       2.007737   -0.374185   -0.863149
