12

O      -0.045466   -0.005663   -0.000453
C      -0.010794    1.202957    0.008181
C       1.238829    1.977597   -0.000146
C       2.504606    1.469367   -0.018471
O       3.419736    2.463224   -0.021025
C       2.751298    3.639883   -0.004419
C       1.405491    3.416368    0.008631
C       0.384602    4.398732    0.027423
N      -0.460997    5.189234    0.042955
H      -0.937127    1.812915    0.023337
H       2.882136    0.461002   -0.030430
H       3.348459    4.535864   -0.004164
