19

N      -0.146309   -1.126846    0.413846
C      -0.092342    0.008876    0.207993
C       0.000113    1.445396   -0.057332
C       1.439736    1.929629   -0.137990
C       2.141639    2.407889    1.080939
N       1.650532    3.371824    0.080540
C       2.684560    3.806861   -0.880048
C       3.383748    2.542635   -1.434744
C       2.306761    1.446249   -1.295197
H      -0.521977    1.660905   -0.997701
H      -0.527734    1.989711    0.731732
H       1.616022    2.437625    2.031191
H       3.211062    2.233702    1.167537
H       2.170901    4.350143   -1.680506
H       3.375290    4.504894   -0.397797
H       3.717779    2.673362   -2.466487
H       4.269921    2.292079   -0.844963
H       2.727132    0.451467   -1.125250
H       1.690770    1.387281   -2.200802
