17

C      -0.019022    1.505737    0.034949
C      -0.007329    0.015401   -0.009367
C      -0.028974   -0.807706   -1.063400
C      -0.004494   -2.248561   -0.642410
N       0.034676   -2.146528    0.817425
C       0.066792   -3.236807    1.641734
O       0.099585   -3.203705    2.853198
C       0.033873   -0.782387    1.236031
N       0.061583   -0.304194    2.410442
H       0.871208    1.878537    0.551851
H      -0.057040    1.937276   -0.967908
H      -0.878044    1.862827    0.612074
H      -0.060282   -0.517443   -2.105462
H      -0.894218   -2.797222   -0.981031
H       0.875008   -2.781338   -1.029628
H       0.059559   -4.185775    1.069988
H       0.087139   -1.052282    3.103708
