16

O      -0.002932    0.013517   -0.341159
C      -0.014180    1.177663   -0.025657
C      -1.322076    1.947375    0.211451
C      -1.041108    3.256432    0.948207
C      -0.011485    3.066159    2.081557
C       0.982649    3.283186    0.921640
C       1.278685    1.981759    0.177306
O      -0.048734    3.992246    0.176638
H      -1.770065    2.167192   -0.765113
H      -2.017800    1.294784    0.749485
H      -1.939873    3.847729    1.139032
H      -0.013260    3.899189    2.785262
H       0.008140    2.113514    2.617142
H       1.870171    3.898097    1.089017
H       2.005302    1.347971    0.696662
H       1.694916    2.213007   -0.810604
