15

N       0.184477    1.151755   -0.511900
C       0.095417   -0.042396    0.132160
O       0.966196   -0.496257    0.848243
C      -1.210136   -0.800321   -0.122464
C      -2.045965   -0.470982   -1.340623
O      -2.544956    0.865359   -1.297334
C      -1.346376   -2.107005    0.531937
O      -1.999601   -0.959731    1.077200
H       0.982663    1.730510   -0.303865
H      -0.643673    1.562584   -0.921420
H      -1.446588   -0.541729   -2.253087
H      -2.871798   -1.190309   -1.412749
H      -3.069411    0.938558   -0.490487
H      -2.004693   -2.855354    0.093359
H      -0.500250   -2.470039    1.107926
