21

C       0.240959    1.525761   -0.203905
C       0.005353    0.058990    0.090936
O       0.695968   -0.814758   -0.847865
C       1.293773   -1.544143    0.220481
C       1.406168   -3.032620    0.182136
C       2.650249   -2.157602    0.082133
C       0.709980   -0.631231    1.295160
C       1.701490    0.175884    2.111363
O       0.959201    1.085438    2.912668
H       1.308667    1.755328   -0.256532
H      -0.206214    1.786687   -1.168166
H      -0.211889    2.144529    0.575801
H      -1.071310   -0.154949    0.073826
H       1.238916   -3.593831    1.096248
H       1.070517   -3.525786   -0.723791
H       3.124537   -2.074296   -0.889998
H       3.334544   -2.128762    0.924122
H       0.011689   -1.123099    1.977240
H       2.296060   -0.510877    2.735969
H       2.405611    0.701872    1.450214
H       1.579688    1.630177    3.405660
