20

C      -0.080428    1.590948    0.076395
C       0.086185    0.084171    0.096646
C       1.349969   -0.681356   -0.221553
C       2.600564   -0.045091    0.363899
O       3.005901    1.161333   -0.254699
C       1.928798   -0.006307    1.779453
C       0.712807   -0.738546    1.188284
C       0.013438   -1.877569    1.874517
H       0.821270    2.111259    0.398500
H      -0.300741    1.932941   -0.940752
H      -0.914613    1.898604    0.718082
H      -0.776768   -0.434188   -0.322152
H       1.363919   -1.441629   -0.995026
H       3.427577   -0.768208    0.364319
H       3.820801    1.453660    0.166235
H       2.473162   -0.600145    2.518936
H       1.742105    0.988404    2.195321
H      -0.576698   -1.525020    2.729810
H      -0.671919   -2.391597    1.192392
H       0.728199   -2.618157    2.252898
