18

C      -0.013153    1.571950    0.155176
C       1.536601    1.545439   -0.017205
O       2.012091    1.777172   -1.332451
C       1.739158    0.647201   -2.139541
C       0.238738    0.407347   -2.472963
N       0.098373   -0.576071   -1.349744
C      -0.041743    0.032774    0.032820
C       1.510785   -0.003649    0.223520
C       1.606656   -0.581372   -1.189470
H      -0.273507    1.860980    1.178865
H      -0.592983    2.186565   -0.537339
H       2.112245    2.184040    0.654191
H       2.453022    0.647007   -2.965742
H      -0.424729    1.275112   -2.456431
H       0.107520   -0.117970   -3.424875
H      -0.757760   -0.516328    0.645773
H       2.044615   -0.436352    1.066602
H       2.146854   -1.505292   -1.401019
