20

C       0.041617    1.500971   -0.029558
N      -0.014212    0.064417    0.133941
C      -1.279539   -0.576299    0.537068
C      -0.450274   -1.624675    1.354022
C      -0.953386   -1.985539    2.740912
N      -0.063540   -2.829217    0.641490
C       0.688011   -0.541888    1.277140
C       2.066760   -0.956869    1.026071
N       3.161864   -1.266027    0.824597
H       1.070503    1.808374   -0.241094
H      -0.580291    1.796247   -0.880270
H      -0.310086    2.051229    0.863120
H      -1.904238    0.063042    1.183198
H      -1.886988   -0.954995   -0.291862
H      -1.859187   -2.599230    2.670292
H      -0.197600   -2.563973    3.279476
H      -1.201087   -1.093504    3.322497
H      -0.859892   -3.454099    0.555756
H       0.243801   -2.601630   -0.299897
H       0.673830    0.091143    2.180699
