16

C      -0.040526    1.463573    0.001281
C      -0.007672    0.009277    0.000544
C       0.024553   -1.197528   -0.000473
C       0.037713   -2.612452   -0.000078
C       1.152732   -3.421736   -0.076465
N       0.724661   -4.731218   -0.045549
C      -0.638171   -4.762754    0.048795
O      -1.230841   -5.982555    0.090984
C      -1.113172   -3.478282    0.080402
H       0.971380    1.883268    0.034754
H      -0.529114    1.857593   -0.897868
H      -0.585666    1.853721    0.868905
H       2.197352   -3.172224   -0.149025
H       1.305270   -5.550609   -0.084944
H      -2.181829   -5.854626    0.156924
H      -2.142887   -3.166560    0.151338
