17

O      -0.057674   -0.013012   -0.319622
C      -0.032534    1.179801   -0.261424
C      -1.142945    2.282292   -0.385354
C      -0.118949    3.215895    0.281942
C      -0.010302    4.052886    1.530638
C       1.453035    3.784344    2.005115
C       1.836658    2.349362    1.515183
C       0.961881    2.186384    0.303662
O       0.977802    3.301042   -0.613975
H      -1.476023    2.576518   -1.381589
H      -2.002889    2.009049    0.233224
H      -0.202950    5.118476    1.374488
H      -0.740944    3.690101    2.263034
H       2.119865    4.511882    1.538453
H       1.557818    3.890018    3.087585
H       2.907490    2.255694    1.316709
H       1.567672    1.584840    2.252575
