21

C       0.280270    1.639061   -0.187876
C       0.143542    0.134143   -0.019954
C       0.553417   -0.822849   -1.175665
C       1.795968   -0.430478   -2.023148
C       2.715517   -1.252560   -1.069176
C       1.488293   -1.623969   -0.202767
C       1.132944   -0.626883    0.957977
C       2.213119    0.123414    1.563867
C       3.111971    0.755738    2.055631
H       1.307730    1.936945   -0.413116
H      -0.364992    1.996976   -0.997943
H      -0.011978    2.159452    0.730085
H      -0.881747   -0.093828    0.288153
H      -0.270999   -1.284760   -1.721396
H       1.760227   -0.825371   -3.041386
H       2.009726    0.638971   -2.089732
H       3.173866   -2.118962   -1.552247
H       3.497628   -0.694348   -0.549474
H       1.346094   -2.677284    0.041288
H       0.573745   -1.135020    1.749721
H       3.901274    1.308204    2.501770
