19

C       0.009332    1.582578    0.058836
C       0.037619    0.046090    0.063615
C       0.777902   -0.478130    1.304101
C      -1.413176   -0.515613    0.029475
C      -2.214799   -0.116707    1.183949
N      -2.839130    0.205518    2.101452
C       0.723132   -0.480215   -1.230431
C       2.111065   -0.044968   -1.367316
N       3.207814    0.305821   -1.464872
H       1.025175    1.986798    0.049945
H      -0.516117    1.969297   -0.821396
H      -0.499754    1.961515    0.949143
H       0.284186   -0.140040    2.219167
H       0.805017   -1.573341    1.319448
H       1.809024   -0.114884    1.319815
H      -1.927311   -0.174934   -0.877362
H      -1.391605   -1.611423   -0.008959
H       0.706062   -1.576667   -1.246015
H       0.169910   -0.140234   -2.114235
