17

C      -0.223799    1.454377   -0.205053
C      -0.064299   -0.042600   -0.090554
O       1.007778   -0.600771   -0.176050
C      -1.306808   -0.867497    0.139849
C      -1.329123   -2.240996   -0.496354
C      -1.141041   -2.109660    0.988952
O      -2.455381   -0.038978    0.211503
C      -3.693841   -0.528305    0.413311
O      -4.649996    0.185654    0.471015
H       0.754638    1.904467   -0.372476
H      -0.905221    1.704358   -1.024410
H      -0.680236    1.859625    0.703685
H      -2.280027   -2.604289   -0.869579
H      -0.462378   -2.492894   -1.096108
H      -0.147398   -2.272713    1.389583
H      -1.961550   -2.382640    1.642939
H      -3.737440   -1.624472    0.517287
