18

C      -0.155626    1.527509    0.083454
C      -0.018257    0.024615    0.062179
C       1.259142   -0.642941   -0.302115
C       0.781309   -0.714018    1.155742
C       1.484114    0.043784    2.149788
C       2.065135    0.658544    3.007855
C       0.193978   -2.055329    1.554672
N       0.369144   -2.406049    2.853115
O      -0.396059   -2.752812    0.747528
H       0.766803    2.010843    0.416113
H      -0.390682    1.897793   -0.920164
H      -0.960724    1.843488    0.754714
H      -0.909617   -0.530406   -0.213533
H       1.211582   -1.580964   -0.842043
H       2.131879   -0.025620   -0.483383
H       2.584802    1.211655    3.750630
H       0.872759   -1.815665    3.492571
H       0.001336   -3.289856    3.161871
