21

C      -0.056753    1.551148   -0.052769
C       0.082244    0.050081    0.104071
C       1.330890   -0.767336   -0.155933
C       2.580338   -0.030864    0.339359
C       1.990896   -0.064166    1.799559
C       2.755218   -1.010909    2.718947
O       1.751603    1.178812    2.446747
C       0.714087   -0.705579    1.243249
O       0.040619   -1.717464    1.913786
H       0.788074    2.091306    0.374170
H      -0.150566    1.820574   -1.111120
H      -0.957260    1.907026    0.460084
H      -0.796166   -0.500677   -0.232317
H       1.331474   -1.596204   -0.852855
H       3.502453   -0.609247    0.242690
H       2.743314    0.968630   -0.072226
H       3.744339   -0.596639    2.951548
H       2.205921   -1.157139    3.652728
H       2.899204   -1.989096    2.253095
H       2.574991    1.466483    2.855785
H      -0.698840   -1.321861    2.387670
