16

O      -0.028156    1.261297   -0.115871
C      -0.069198   -0.127298   -0.027644
C      -0.492921   -0.692006    1.338999
C      -1.434312   -0.691566    0.093706
C      -1.359008   -2.207722    0.051443
C      -2.440917   -3.171953   -0.257468
N      -1.233309   -3.107218   -1.095929
C      -0.473098   -2.194509    1.300331
O      -0.064263   -3.050080    2.032873
H       0.815250    1.562026    0.239039
H       0.687911   -0.651699   -0.611315
H      -0.501595   -0.043246    2.204798
H      -2.318553   -0.083861   -0.045986
H      -2.529593   -4.071205    0.345090
H      -3.376637   -2.774339   -0.642597
H      -1.428683   -2.592851   -1.952880
