19

C      -0.330472    1.581217   -0.111658
C      -0.016545    0.085926    0.030007
C       0.800271   -0.463329   -1.155260
N       1.985328    0.307797   -1.462022
C       3.134325    0.368749   -0.689706
O       4.186390    0.735275   -1.196802
C       3.044613    0.019753    0.731381
C       1.980419   -0.195332    1.541387
N       0.642238   -0.232905    1.289721
H       0.589436    2.168850   -0.131403
H      -0.878897    1.771506   -1.040493
H      -0.947895    1.925370    0.723588
H      -0.962201   -0.471643    0.037397
H       1.034973   -1.518038   -0.954262
H       0.158795   -0.436692   -2.040004
H       2.173558    0.508147   -2.432658
H       4.017625   -0.006872    1.205349
H       2.197557   -0.397503    2.587764
H       0.044232   -0.301925    2.095216
