21

O      -0.607860    1.166360    0.138984
C      -0.125009   -0.139035    0.044915
C      -0.407075   -1.035964    1.212318
C       1.029111   -0.664956    0.875475
C       1.832856   -1.629886    0.017442
C       0.888689   -1.996730   -1.157573
C      -0.038303   -0.791493   -1.318299
C      -1.193119   -0.789875   -2.277680
C       0.014877    0.077131   -2.553228
H       0.050169    1.751843   -0.252161
H      -0.829135   -0.542458    2.080369
H      -0.764954   -2.047133    1.047149
H       1.546188   -0.010424    1.568786
H       2.728158   -1.119367   -0.357154
H       2.172036   -2.518413    0.560869
H       1.435975   -2.229227   -2.075265
H       0.303245   -2.888313   -0.905877
H      -1.350572   -1.666819   -2.897524
H      -2.102498   -0.286786   -1.966038
H      -0.113929    1.149154   -2.446290
H       0.691002   -0.215019   -3.350141
