21

C       0.194690    1.269167   -0.913060
C       0.009187   -0.009853   -0.127650
C       1.183827   -0.839492    0.167164
O       0.632512    0.007695    1.185206
C      -1.378696   -0.656959   -0.122939
C      -2.309628    0.030389    0.896638
O      -1.966068   -0.273282    2.230348
C      -2.010356   -0.678827   -1.513695
O      -1.091297   -1.281391   -2.416137
H       1.181566    1.690904   -0.709325
H       0.111065    1.064237   -1.983788
H      -0.555154    2.019879   -0.642547
H       1.061571   -1.908636    0.329825
H       2.164799   -0.534498   -0.193657
H      -1.266857   -1.694479    0.212087
H      -2.319625    1.119811    0.717843
H      -3.337529   -0.322643    0.748594
H      -1.006461   -0.173006    2.295484
H      -2.951196   -1.247252   -1.466487
H      -2.262550    0.345258   -1.831497
H      -1.494583   -1.300815   -3.289022
