22

C       0.100779    1.093333   -0.741929
C      -0.056444   -0.005388    0.318727
C      -1.455153   -0.600910    0.356204
C      -2.549549    0.304571    0.884122
O      -1.845180   -1.351587   -0.821700
C      -1.674524   -2.061061    0.410344
C      -0.586405   -3.095260    0.434678
C      -0.626094   -4.204245   -0.552400
N       0.398750   -3.150131   -0.652527
H       1.133032    1.453658   -0.771667
H      -0.153450    0.708150   -1.733995
H      -0.543627    1.954714   -0.541147
H       0.676575   -0.794480    0.136675
H       0.165354    0.402852    1.313053
H      -2.618873    1.223447    0.293996
H      -3.519535   -0.196486    0.841554
H      -2.347237    0.587562    1.922818
H      -2.611898   -2.395513    0.862932
H      -0.178511   -3.296591    1.423821
H      -0.254022   -5.188283   -0.282395
H      -1.435218   -4.201059   -1.278228
H       0.096312   -2.486303   -1.364705
