22

C       2.056686    3.203454    1.686139
C       1.104622    2.059280    1.312237
C       1.212863    1.677945   -0.173257
O       0.887477    2.739764   -1.055066
C       1.381144    0.845729    2.179182
N       0.858540    0.854701    3.556903
C       0.373888   -0.167065    2.603808
C      -1.109123   -0.100087    2.317166
O      -1.857272   -0.465486    3.464949
H       3.102457    2.929741    1.495674
H       1.831591    4.110833    1.116747
H       1.960282    3.447567    2.747624
H       0.079826    2.398354    1.494346
H       2.221722    1.282546   -0.381762
H       0.501938    0.876471   -0.400303
H       1.586235    3.398122   -0.999893
H       2.392024    0.452588    2.054407
H       1.534437    0.451616    4.199302
H       0.743843   -1.180950    2.749998
H      -1.388044    0.902523    1.965699
H      -1.377212   -0.815237    1.532211
H      -1.559699    0.124662    4.167793
