14

N      -0.101275    1.339870   -0.118273
C      -0.035767    0.078545    0.018934
C      -1.271956   -0.782926    0.032010
C      -1.046445   -1.984381    0.936755
O       0.114295   -2.726448    0.524625
C       1.256915   -2.053297    0.280546
O       2.312729   -2.615116    0.174469
N       1.135890   -0.669388    0.157603
H       0.825120    1.772539   -0.128346
H      -2.120960   -0.182320    0.361235
H      -1.475979   -1.129173   -0.988364
H      -0.917023   -1.673884    1.980958
H      -1.872861   -2.694519    0.886340
H       2.025200   -0.206504    0.031887
