17

C      -0.228744    1.374149    0.090861
O       0.181244    0.020750   -0.051024
C       0.761862   -0.531794    1.100276
C      -0.237070   -0.671441    2.185175
N      -1.045719   -0.750982    3.006158
C       1.351582   -1.908141    0.692464
C       2.371780   -1.763667   -0.451962
C       1.962644   -2.558527    1.854412
N       2.475208   -3.063795    2.757993
H       0.619594    2.018663    0.360868
H      -0.620882    1.681280   -0.879668
H      -1.014235    1.478104    0.849680
H       1.576940    0.106935    1.478056
H       0.512983   -2.528601    0.356623
H       2.747892   -2.746148   -0.744594
H       1.892576   -1.291707   -1.309798
H       3.222409   -1.151811   -0.138150
