10

O      -0.135213    1.267054    0.010234
N       1.171824    1.882281    0.000783
C       2.048040    0.905166   -0.012658
C       1.419164   -0.370283   -0.013333
C       0.095794   -0.028237    0.001171
O      -0.733993   -1.049350    0.003787
N       0.111184   -2.220849   -0.010605
C       1.351171   -1.790700   -0.020138
H       3.095216    1.173240   -0.021301
H       2.137272   -2.532612   -0.031582
