22

C       0.200713    1.088288   -1.302507
C       1.044672   -0.121249   -0.878733
C       2.547764    0.098849   -1.193660
C       2.817152    0.289194   -2.617066
N       3.010252    0.430682   -3.747951
C       0.877332   -0.418418    0.600358
C      -0.308527   -1.203916    1.106968
C       1.079122   -1.789552    1.214270
C       1.468511   -3.016275    0.416640
H       0.496427    1.985577   -0.746042
H       0.315385    1.300540   -2.369424
H      -0.858303    0.905458   -1.100589
H       0.712879   -0.988368   -1.460647
H       2.915375    0.977564   -0.649247
H       3.132827   -0.757299   -0.842153
H       1.185776    0.413570    1.232208
H      -0.816842   -0.869625    2.004651
H      -0.969166   -1.638053    0.361549
H       1.510469   -1.770793    2.212172
H       1.008048   -3.027289   -0.575273
H       2.554019   -3.085859    0.282176
H       1.144569   -3.926461    0.932971
