15

O      -0.063150   -0.007876   -0.500687
C      -0.072396    1.159405   -0.212831
C      -1.130496    2.251030    0.072223
C       0.079453    3.193689    0.335693
N       0.947030    2.060817   -0.002302
C       2.379743    1.872375    0.050136
C       2.947669    2.156643    1.368455
C       3.400779    2.417041    2.450132
H      -1.753886    2.509522   -0.785149
H      -1.761851    2.043288    0.937605
H       0.175080    4.045555   -0.345795
H       0.188538    3.536723    1.369193
H       2.556526    0.826815   -0.227976
H       2.878331    2.495772   -0.705380
H       3.809659    2.630872    3.406762
