20

C       0.178808    1.394783    0.306939
C       0.098415   -0.086200   -0.078921
C       0.601633   -0.390939   -1.489615
O      -0.133071    0.278360   -2.488384
C       2.166319   -0.324075   -1.661916
N       2.148751   -1.772412   -1.855636
C       0.694792   -1.906277   -1.827616
C       3.109371   -2.712722   -1.972252
O       2.897544   -3.901671   -2.101960
H       1.200551    1.781828    0.223196
H      -0.471459    2.015857   -0.320027
H      -0.145837    1.544544    1.340174
H       0.681211   -0.684029    0.631700
H      -0.939495   -0.432925   -0.007728
H      -0.141401    1.219802   -2.285660
H       2.470668    0.241450   -2.549750
H       2.739781    0.014605   -0.791708
H       0.322063   -2.599012   -1.066928
H       0.255569   -2.154918   -2.798393
H       4.127023   -2.271059   -1.929691
