15

O       0.116435    1.624826   -0.010940
C       0.119265    0.201107    0.043176
C       0.698060   -0.391905   -1.161377
C       1.223340   -0.848611   -2.151828
C       1.805403   -1.367031   -3.266697
C       2.323658   -1.824858   -4.256363
C       0.834693   -0.290636    1.297531
C       0.105437   -0.433485    2.559459
O       0.457562   -1.576963    1.773258
H       0.968493    1.908833   -0.360061
H      -0.932428   -0.098885    0.125213
H       2.777204   -2.231010   -5.126323
H       1.905959   -0.085209    1.323134
H       0.637284   -0.333114    3.503735
H      -0.957173   -0.197724    2.593654
