15

O      -0.003546   -0.081144   -0.105917
C       0.022051    1.125627   -0.027493
N      -1.070229    1.970255    0.067217
C      -0.714883    3.367889    0.066995
C      -1.244334    4.125607    1.313311
C      -2.704123    4.129500    1.358437
N      -3.859473    4.108746    1.360552
C       0.795555    3.306491    0.035473
C       1.207940    2.040507   -0.010917
H      -2.013927    1.633537   -0.033478
H      -1.096371    3.881830   -0.827838
H      -0.856184    3.648657    2.218820
H      -0.885139    5.160602    1.298032
H       1.403069    4.202333    0.056517
H       2.220567    1.665265   -0.045798
