14

N       0.012806    1.390789   -0.136282
C      -0.000196    0.015966   -0.053222
C      -1.178878   -0.697210   -0.026884
C      -1.215276   -2.130356   -0.000513
O      -2.188819   -2.863720    0.023498
N       0.087551   -2.722075    0.003928
C       1.233605   -2.015224   -0.017414
F       2.334885   -2.751336   -0.008920
C       1.263804   -0.663049   -0.045809
H       0.842564    1.863743    0.184108
H      -0.844051    1.867396    0.096682
H      -2.137947   -0.194199   -0.028774
H       0.118027   -3.731683    0.026646
H       2.207387   -0.137979   -0.077479
