16

C       0.005394    1.390357   -0.358605
O       1.351066    1.634572    0.091204
C       1.458937    0.308014    0.640212
C       0.068474   -0.097509    0.080793
C      -0.962141   -0.617558    1.017067
C      -1.417351   -0.119077    2.219872
N      -2.353014   -1.013767    2.611818
N      -2.486767   -2.013598    1.722851
N      -1.646373   -1.774186    0.759229
H      -0.730669    1.994470    0.188790
H      -0.112106    1.571734   -1.433003
H       2.319249   -0.238709    0.237728
H       1.521984    0.317097    1.736719
H       0.136069   -0.785144   -0.762718
H      -1.166876    0.752786    2.800334
H      -2.923036   -1.012407    3.442858
