18

C      -0.411195    1.225686   -0.260659
C       0.199430   -0.120038    0.092229
C       1.143043   -0.873284   -0.915545
C       2.089391   -1.244255    0.270878
C       1.361939   -0.175016    1.093228
O       1.649258    0.479244    2.053304
C       0.504115   -2.055274   -1.620246
N       0.541212   -2.027782   -2.981661
O      -0.021023   -2.961004   -0.997410
H       0.352228    1.928580   -0.610112
H      -1.170352    1.126327   -1.042847
H      -0.887476    1.666551    0.619975
H      -0.564838   -0.836994    0.419508
H       1.617356   -0.172755   -1.608457
H       1.854565   -2.249589    0.635985
H       3.167722   -1.136011    0.140333
H       1.000507   -1.297403   -3.495483
H       0.135398   -2.798251   -3.487582
