18

O      -0.000741    1.385779   -0.258630
C       0.048477   -0.003191    0.007753
C      -1.350568   -0.554645    0.134463
C      -2.150042   -0.436098    1.441835
O      -2.584239   -1.821862    1.330139
C      -1.772016   -2.026636    0.152017
C      -2.475735   -1.788877   -1.194757
C      -3.488168   -0.727078   -1.088687
N      -2.077448   -0.309639   -1.189220
H      -0.574864    1.476637   -1.031092
H       0.583761   -0.549217   -0.785653
H       0.605420   -0.134970    0.941114
H      -1.520359   -0.287961    2.327740
H      -2.987690    0.268807    1.472257
H      -1.098874   -2.882756    0.230001
H      -2.346235   -2.403636   -2.079917
H      -4.045175   -0.481514   -1.987592
H      -4.041334   -0.607047   -0.164021
