18

C       0.298272    1.449957    0.038243
C      -0.192868    0.021752    0.012648
O      -0.644646   -0.536525    0.988131
C      -0.111466   -0.740183   -1.321112
C      -1.537075   -1.047909   -1.812543
O       0.587199    0.059832   -2.264579
C       0.683444   -2.036018   -1.082818
O       0.874045   -2.625305   -2.366412
H       1.356478    1.484716   -0.238167
H      -0.226103    2.043540   -0.717372
H       0.145058    1.870260    1.032616
H      -2.046188   -0.119154   -2.084113
H      -1.492374   -1.691878   -2.694594
H      -2.109655   -1.551585   -1.029744
H       0.884647   -0.552561   -2.950015
H       1.649379   -1.787912   -0.620428
H       0.129801   -2.694315   -0.403745
H       1.535700   -3.318156   -2.292567
