18

O       0.231498    0.300475    1.209051
C      -0.151140    0.260815   -0.160680
C      -1.457082   -0.373772   -0.285985
C      -2.540409   -0.882421   -0.411785
C      -3.836493   -1.534646   -0.541570
C      -3.789109   -2.992434   -0.076906
O      -5.093427   -3.537248   -0.266579
C      -5.354366   -4.706945    0.348222
N      -6.453187   -5.293990    0.148185
H       1.090263    0.733263    1.253972
H      -0.204082    1.274665   -0.590070
H       0.582094   -0.300462   -0.762831
H      -4.597499   -1.003461    0.042220
H      -4.173301   -1.510434   -1.584774
H      -3.053614   -3.554778   -0.665327
H      -3.497390   -3.044363    0.979355
H      -4.542266   -5.047240    1.006323
H      -6.495135   -6.147915    0.700519
