16

C       0.130146    1.608347    0.000497
C      -0.003114    0.084518    0.033744
C       0.703517   -0.616906   -1.142603
O       1.979966   -1.012722   -0.629692
C       1.951734   -1.070688    0.732993
O       2.836729   -1.505481    1.398127
N       0.723333   -0.518249    1.154717
C       0.248687   -0.500742    2.460735
O       0.799788   -0.954004    3.424940
H       1.181286    1.902155   -0.080517
H      -0.412624    2.016711   -0.857833
H      -0.282002    2.058704    0.908109
H      -1.058579   -0.200513    0.076793
H       0.162515   -1.508831   -1.476453
H       0.865160    0.047137   -1.993611
H      -0.744940   -0.009632    2.500314
