15

N      -0.022116    1.336797    0.074591
C       0.007491    0.077077    0.054709
O      -1.135827   -0.619706   -0.126398
C      -1.065612   -2.021070   -0.026696
C      -1.781252   -2.755320    1.144901
C      -3.151557   -2.334805    0.562280
C      -2.251197   -2.832914   -0.594461
O      -1.795186   -3.947004    0.268750
H       0.918812    1.704788    0.198184
H       0.894330   -0.562406    0.161373
H      -0.077688   -2.417243   -0.276192
H      -1.467955   -2.891807    2.179729
H      -3.977760   -2.999316    0.815798
H      -3.414502   -1.276904    0.584404
H      -2.498303   -3.061795   -1.630554
