17

C      -0.145209    1.594196    0.114113
C      -0.008647    0.087215    0.061414
C       1.308480   -0.624612   -0.263323
C       2.573814    0.117418   -0.465623
O       3.420330   -0.222950   -1.259024
C       0.675941   -0.671456    1.156350
O       1.251796    0.125232    2.152418
C       0.155099   -1.936545    1.601977
C      -0.246371   -3.000753    1.993047
H       0.658154    2.061260    0.684178
H      -0.149606    2.016076   -0.895742
H      -1.090417    1.863326    0.595612
H      -0.868963   -0.424174   -0.358863
H       1.239250   -1.533193   -0.850653
H       2.713367    1.014148    0.170382
H       1.920654   -0.401388    2.604622
H      -0.614143   -3.936262    2.336835
