15

C      -0.128677    1.502926   -0.256378
N      -0.011517    0.053533   -0.235184
C      -1.149029   -0.598209    0.380884
C      -1.121640   -2.081932    0.201265
N      -0.305948   -2.689998   -0.617840
O      -0.657860   -4.042332   -0.488442
C      -1.649033   -4.077952    0.401196
N      -1.993612   -2.922494    0.868838
H       0.734589    1.930418   -0.773362
H      -1.046279    1.877482   -0.746096
H      -0.124851    1.887027    0.770504
H       0.128315   -0.310196   -1.170953
H      -1.155234   -0.387471    1.458635
H      -2.130296   -0.242014    0.005962
H      -2.058564   -5.047923    0.642936
