21

C      -0.009948    1.542374   -0.276800
C      -0.000852    0.051751   -0.021623
C       1.302915   -0.744797   -0.028708
O       2.529135   -0.081669   -0.151587
C       0.541152   -0.527683    1.252722
C       1.145012    0.264147    2.414458
C       0.857263   -0.642529    3.637158
C       0.497509   -1.984911    2.984939
O      -0.165217   -1.630005    1.776521
H       0.923253    2.006779    0.052246
H      -0.130326    1.756150   -1.344944
H      -0.835869    2.031359    0.250720
H      -0.852693   -0.493790   -0.420260
H       1.268634   -1.749312   -0.449559
H       2.616401    0.228344   -1.059332
H       2.214137    0.417617    2.253149
H       0.684939    1.249256    2.528217
H       1.705803   -0.718723    4.321262
H       0.000880   -0.263845    4.202277
H       1.404871   -2.572055    2.770613
H      -0.185918   -2.601734    3.573667
