13

C      -0.071857    1.558261    0.007697
C      -0.031624    0.039035    0.011772
C       1.202546   -0.653723   -0.639807
O       2.023487   -0.222701    0.524542
C       0.751990   -0.660819    1.162336
C       0.900441   -1.898605    0.237169
O       0.917526   -3.083591    0.236774
H       0.907725    1.971601    0.254214
H      -0.372010    1.931546   -0.976478
H      -0.800515    1.924797    0.737588
H      -1.000456   -0.410600   -0.232217
H       1.633254   -0.538271   -1.632307
H       0.664738   -0.553525    2.241581
