18

O       0.094660    1.446896   -0.003526
C       0.085453    0.039886    0.114648
C      -1.334203   -0.524111   -0.006124
O      -1.786707   -0.068371   -1.287571
C      -1.383703   -2.017997    0.112729
C      -1.234119   -2.916369   -0.923825
N      -1.309564   -4.180757   -0.399615
C      -1.503965   -4.113113    0.956394
C      -1.556495   -2.784446    1.304082
H      -0.433162    1.641915   -0.787301
H       0.712877   -0.442290   -0.652588
H       0.499273   -0.211507    1.095806
H      -1.941431   -0.065898    0.790210
H      -2.690234   -0.377686   -1.405764
H      -1.086163   -2.749323   -1.977865
H      -1.248697   -5.030131   -0.932824
H      -1.595972   -5.007596    1.551071
H      -1.703793   -2.395507    2.300534
