19

C       0.043533    1.566529    0.070128
C      -0.040606    0.064199   -0.038651
C       0.619896   -0.565556   -1.276778
C       0.228454   -2.059421   -1.393230
C       0.062685   -2.734528   -0.010072
C      -0.488687   -1.708703    0.984743
O       0.499377   -0.646990    1.130934
C      -1.366004   -0.664522    0.272654
O      -2.529288   -0.423178    0.163840
H       1.080344    1.905888   -0.021900
H      -0.542507    2.030774   -0.728763
H      -0.350474    1.904621    1.031592
H       0.333028   -0.028476   -2.187295
H       1.701802   -0.445684   -1.149442
H      -0.730088   -2.122506   -1.921762
H       0.952952   -2.601528   -2.007353
H      -0.597838   -3.604856   -0.084989
H       1.023583   -3.081083    0.385475
H      -0.811894   -2.121755    1.943148
