12

C       0.125911    1.555014    0.235138
C       0.028504    0.035960    0.040072
O       0.790679   -0.558053    1.080931
C      -1.449014   -0.381725    0.209863
O      -2.184642   -0.720828   -0.671345
C       0.537082   -0.362169   -1.285386
N       0.965748   -0.700371   -2.302910
H       1.175977    1.853543    0.211089
H      -0.421295    2.081366   -0.549621
H      -0.291465    1.818075    1.210882
H       0.855985   -1.506927    0.918594
H      -1.755953   -0.331927    1.277875
