16

N      -0.118775   -1.111051   -0.156779
C      -0.062493    0.042109   -0.119017
C       0.000296    1.499326   -0.045861
C       1.438026    2.028961    0.066391
O       2.138206    1.655090   -1.114521
C       3.044275    2.682839   -1.506253
C       2.516227    3.949191   -0.871667
O       1.117848    4.153870   -1.109040
C       1.521478    3.543284    0.121018
H      -0.452880    1.933049   -0.942234
H      -0.582856    1.829946    0.821198
H       1.922016    1.608926    0.962531
H       4.064107    2.484479   -1.141471
H       3.062122    2.713595   -2.600067
H       3.129567    4.841238   -0.785574
H       1.305102    4.088438    1.035429
