17

O       0.046226    1.377489   -0.025489
C       0.022064   -0.008494   -0.010417
C       1.010100   -0.521228   -1.037875
O       1.656203    0.257184   -1.705669
C       0.024672   -0.648495    1.460091
C      -1.465417   -0.178137    1.525710
C      -1.452339   -0.639699    0.031513
C      -1.117273   -2.118988    0.190206
C      -0.154123   -2.124756    1.121626
H       0.699773    1.615364   -0.706266
H       1.118545   -1.609637   -1.155339
H       0.773718   -0.344685    2.189962
H      -2.121710   -0.731790    2.200792
H      -1.574187    0.900245    1.644765
H      -2.204721   -0.326870   -0.691079
H      -1.542040   -2.937766   -0.373107
H       0.418008   -2.949470    1.522432
