13

C       0.002410    1.521471    0.037942
C      -0.023041    0.023734    0.001932
C      -1.140989   -0.696050   -0.208241
O      -1.140067   -2.054162   -0.236626
C       0.017205   -2.775585   -0.049917
O       0.008154   -3.971620   -0.076661
C       1.189822   -1.900433    0.173078
F       2.317336   -2.556604    0.356008
N       1.188237   -0.630435    0.199510
H       0.676844    1.912445   -0.730815
H      -0.993226    1.939925   -0.126813
H       0.374216    1.875824    1.004856
H      -2.129276   -0.288087   -0.372071
