19

C      -0.000744    1.446129   -0.145349
C       0.095465   -0.074850    0.086705
C       0.748813   -0.397641    1.352748
C       1.257860   -0.660002    2.409995
C      -1.298366   -0.714401    0.057337
O      -1.996912   -0.502115   -1.205212
C      -2.293908   -1.901004   -1.283291
C      -1.043380   -2.701316   -1.435502
C      -1.471994   -2.227319   -0.058674
H       0.994456    1.896271   -0.175472
H      -0.509349    1.640054   -1.092735
H      -0.566277    1.924557    0.660061
H       0.681540   -0.511801   -0.731438
H       1.721998   -0.894004    3.335837
H      -1.903185   -0.305308    0.876798
H      -3.287555   -2.190045   -1.603732
H      -1.185208   -3.765828   -1.595231
H      -0.187416   -2.272279   -1.948067
H      -1.663754   -2.901178    0.763880
