14

O      -0.793131    0.796818    0.459405
C       0.197496    0.869475   -0.214988
C       1.331062    1.881456    0.014408
C       1.320298    2.556692    1.405383
C       2.528956    1.649907    1.702912
O       2.512283    1.098764    0.358355
C       1.500383    2.710339   -1.164480
C       1.594065    3.375460   -2.161935
H       0.410091    0.167743   -1.048097
H       1.531436    3.624508    1.386715
H       0.409058    2.357018    1.968518
H       3.473781    2.163998    1.905384
H       2.369168    0.872528    2.457413
H       1.691893    3.972796   -3.035240
