23

C       0.083939    1.502899    0.257464
C       0.002479    0.012892   -0.103049
C      -1.407728   -0.510502   -0.122214
C      -2.125083   -0.989935    1.112469
C      -1.929775   -1.950667   -0.034233
C      -2.942088   -1.651885   -1.120765
C      -3.290864   -2.544018   -2.271212
C      -4.344493   -2.173396   -1.246292
C      -2.440727   -0.195310   -1.224884
H       1.119912    1.856026    0.251292
H      -0.480175    2.113321   -0.455982
H      -0.331754    1.688826    1.253206
H       0.465532   -0.149431   -1.085899
H       0.593684   -0.570903    0.614109
H      -1.488412   -1.162778    1.975606
H      -3.122586   -0.631971    1.358506
H      -1.370399   -2.874006    0.072505
H      -3.361676   -2.104170   -3.261465
H      -2.910333   -3.560918   -2.263959
H      -4.673502   -2.939309   -0.551023
H      -5.124375   -1.481538   -1.548920
H      -3.162871    0.598043   -1.001143
H      -1.972163    0.015851   -2.191515
