18

C      -0.118802    1.566920   -0.053697
C       0.007293    0.039028    0.009589
C       0.889510   -0.508298   -1.148612
N       2.201483   -0.652910   -0.532573
C       2.196933   -0.710247    0.832901
O       3.136247   -0.939239    1.561615
C       0.759207   -0.433577    1.246969
C       0.426783   -0.157662    2.644715
O       0.179111   -1.446417    2.079352
H       0.867680    2.042779   -0.043810
H      -0.632561    1.875501   -0.969563
H      -0.686597    1.953533    0.797318
H      -0.984520   -0.418829   -0.011369
H       0.513177   -1.469454   -1.522762
H       0.927578    0.190115   -1.990754
H       3.025369   -0.919623   -1.048315
H       1.236626   -0.119221    3.370632
H      -0.460942    0.428393    2.878633
