20

C       0.070748    1.576606   -0.118832
C       0.024533    0.061853   -0.075349
C       1.108792   -0.685160   -0.800588
C       1.115181   -0.670859    0.722642
C       2.129840    0.055296    1.429310
N       2.942965    0.648156    2.001692
C      -1.328114   -0.599681   -0.017990
C      -2.450303   -0.093699    0.855867
C      -2.561843    0.003822   -0.645269
H       1.099799    1.939335   -0.066272
H      -0.368296    1.949548   -1.049166
H      -0.472852    2.022749    0.719652
H       0.869151   -1.630113   -1.275845
H       1.881099   -0.110920   -1.299568
H       0.807354   -1.584681    1.220113
H      -1.264457   -1.682852   -0.092118
H      -3.056825   -0.826704    1.375844
H      -2.298953    0.825543    1.410307
H      -2.485779    0.989169   -1.090246
H      -3.245620   -0.660910   -1.161223
