20

C       0.022520    1.556169   -0.056012
C       0.029644    0.046323   -0.000059
C       0.422735   -0.708237   -1.268015
C       0.279162   -2.155404   -0.714250
N      -0.145252   -1.949179    0.686918
C       0.731190   -0.777410    1.158778
C       0.005377   -0.347186    2.420458
C      -1.272945   -0.367567    2.036264
C      -1.170201   -0.807527    0.587259
H       1.015492    1.941912   -0.313923
H      -0.674894    1.915104   -0.821578
H      -0.272748    1.988034    0.904325
H      -0.252065   -0.494603   -2.103703
H       1.439882   -0.467835   -1.595108
H      -0.476517   -2.745498   -1.241034
H       1.216774   -2.718722   -0.732065
H       1.810551   -0.943134    1.180075
H       0.451954   -0.112820    3.375301
H      -2.178467   -0.154738    2.584731
H      -2.077152   -1.004709    0.011503
