17

C       0.008873    1.516609    0.017992
C       0.053313    0.014352    0.003190
C      -1.156804   -0.827814    0.465160
C      -0.599216   -2.263337    0.347078
C      -0.443889   -1.476580    1.625343
C       0.877137   -0.915517    1.007364
C       0.827609   -1.985014   -0.164167
C       0.700903   -0.799861   -1.136328
O       1.135735   -0.528994   -2.218130
H       0.985565    1.941273   -0.234735
H      -0.712580    1.888186   -0.718127
H      -0.290045    1.896885    1.000625
H      -2.208075   -0.603789    0.338657
H      -1.233975   -3.112379    0.133007
H      -0.762637   -1.685287    2.637058
H       1.792419   -0.600303    1.499900
H       1.536224   -2.798288   -0.296863
