16

O       0.015774    1.288140    0.363754
C      -0.043102   -0.057341   -0.040756
C      -1.500535   -0.519591   -0.177943
C      -1.729592   -2.050757   -0.034579
C      -2.335389   -1.699038    1.336287
O      -2.167149   -0.280044    1.104388
C      -2.188646    0.135172   -1.280531
C      -2.753446    0.643957   -2.211360
H      -0.572116    1.359219    1.127169
H       0.475844   -0.139437   -1.001023
H       0.458199   -0.723777    0.680761
H      -2.431633   -2.464179   -0.757118
H      -0.817149   -2.649640   -0.022686
H      -3.389903   -1.959198    1.475231
H      -1.765441   -2.039135    2.208475
H      -3.250374    1.108703   -3.027011
