15

O       0.091966    1.370976    0.085575
C       0.005729   -0.007327    0.065417
C       0.646561   -0.747195    1.274896
O       0.165298   -2.098434    1.122664
C      -0.650370   -2.076436   -0.017102
C      -1.366924   -0.726777    0.032253
O       0.203625   -1.938879   -1.203267
C       0.626801   -0.651510   -1.173091
O       1.342886   -0.124867   -1.977002
H       0.650759    1.621196   -0.665691
H       1.740008   -0.737414    1.257964
H       0.290906   -0.318004    2.217646
H      -1.197743   -3.009710   -0.109351
H      -1.961312   -0.592402    0.937466
H      -1.956089   -0.506911   -0.858937
