18

N       0.066408   -1.189931    0.129790
C       0.035753   -0.036572    0.061542
C      -0.009811    1.425914   -0.011060
C      -0.804455    2.006341    1.191523
C      -0.735546    3.530191    1.224575
C       0.165006    4.218724    2.222980
C       0.545483    4.181126    0.756381
C       1.622801    3.283551    0.273832
C       1.389635    2.021787   -0.084582
H      -0.548221    1.676226   -0.937068
H      -1.843803    1.670806    1.136468
H      -0.384243    1.579743    2.107060
H      -1.658185    4.042227    0.972631
H      -0.154455    5.167119    2.640961
H       0.728267    3.589306    2.904173
H       0.459348    5.125739    0.225730
H       2.629542    3.688286    0.204013
H       2.186266    1.380621   -0.446137
