15

C       0.516230    1.475473    0.129250
O       0.760811    0.086294    0.076679
C      -0.007973   -0.637187    1.001431
C       0.339437   -2.073625    0.847118
C       1.177249   -2.735180    0.055749
O       1.091469   -4.087052    0.348368
C       0.172056   -4.232421    1.346512
O      -0.162653   -5.252506    1.854020
O      -0.303817   -2.983784    1.665867
H       0.758933    1.892053    1.118489
H       1.156853    1.943066   -0.620895
H      -0.534320    1.710485   -0.099120
H       0.191869   -0.313169    2.038330
H      -1.089930   -0.493693    0.831524
H       1.859903   -2.429308   -0.714455
