18

C      -0.030257    1.471372    0.046951
C      -0.000109   -0.019426   -0.010447
C      -0.038272   -0.789235   -1.114075
C       0.022317   -2.215163   -0.757024
O       0.093279   -3.185204   -1.484750
C       0.024077   -2.275449    0.753688
C      -0.690816   -3.410175    1.402210
N       0.771055   -3.364554    1.397953
C       0.090270   -0.845582    1.258620
H       0.867249    1.857544    0.545994
H      -0.093999    1.918106   -0.947805
H      -0.885768    1.817668    0.640278
H      -0.086179   -0.439682   -2.137807
H      -1.155586   -3.253222    2.372026
H      -1.190140   -4.116621    0.744328
H       1.110498   -3.976692    0.654086
H       1.031136   -0.651419    1.788211
H      -0.719083   -0.591100    1.954258
