19

C       0.071259    1.520013    0.077078
N      -0.028174    0.079285    0.125205
C      -1.295933   -0.531728    0.564743
C      -0.472928   -1.631667    1.278233
C       0.720902   -0.649643    1.164974
C      -0.942583   -2.066126    2.663287
O      -2.210727   -2.695222    2.637770
C       0.073217   -2.928663    3.307822
N       0.866958   -3.623447    3.779781
H       1.091767    1.812641   -0.191327
H      -0.602856    1.912212   -0.691625
H      -0.184068    2.006434    1.038343
H      -1.856675    0.086223    1.287522
H      -1.973502   -0.830027   -0.241071
H      -0.329431   -2.512070    0.645046
H       1.690612   -1.047665    0.852042
H       0.859864   -0.068656    2.094097
H      -1.075165   -1.180680    3.295206
H      -2.138117   -3.501206    2.113133
