20

C      -0.112611    1.537694   -0.143652
C      -0.008767    0.028181    0.023036
C      -1.400067   -0.584298    0.264330
O      -1.408050   -0.977686    1.663720
C      -0.132860   -0.769044    2.315160
C       0.785251   -0.689932    1.126301
C       2.057691   -0.141236    0.437627
N       1.201847   -0.623854   -0.771462
C       0.951324   -1.851142    0.113772
H       0.845632    2.044004   -0.260558
H      -0.702433    1.754007   -1.041396
H      -0.637773    1.988565    0.705817
H      -2.188678    0.160660    0.117361
H      -1.646448   -1.455952   -0.349437
H      -0.144931    0.157388    2.907383
H       0.035613   -1.617053    2.985494
H       2.261750    0.927019    0.464192
H       2.979363   -0.717155    0.545146
H       1.835775   -2.482976    0.226273
H       0.089949   -2.449992   -0.174972
