22

C      -1.826205    0.342531    1.678762
C      -0.882263   -0.639637    1.020974
C       0.045200   -0.211040   -0.088064
C       0.618513   -0.617457    1.251475
C       1.322850    0.348310    2.185099
C       1.543148    1.771842    1.703402
C       1.112562    0.144586    3.672904
C       2.426079   -0.238720    3.040708
H      -1.388444    1.340826    1.760482
H      -2.753590    0.435897    1.102298
H      -2.095784    0.020481    2.690563
H      -1.303409   -1.636749    0.913815
H       0.196744   -0.866216   -0.939464
H       0.055139    0.843911   -0.341509
H       1.067250   -1.607633    1.259599
H       0.603224    2.299952    1.509153
H       2.088741    2.350367    2.455627
H       2.129386    1.789268    0.777989
H       1.085820    1.019642    4.314336
H       0.447062   -0.653939    3.983009
H       2.649873   -1.295072    2.931625
H       3.295281    0.377407    3.246834
