16

C       0.024009    1.554844    0.051121
O       1.383585    1.959979   -0.093858
C       2.040448    0.983614   -0.854579
C       2.547166   -0.259702   -0.145017
N       2.589543   -0.395982    1.270784
C       1.486530   -0.508593    1.881902
O       0.226733   -0.474740    1.385931
C       0.051590    0.019249    0.043750
C       1.221621   -0.282539   -0.888980
H      -0.371190    1.966325    0.982734
H      -0.577405    1.919743   -0.795218
H       2.585492    1.365974   -1.711161
H       3.386319   -0.740026   -0.639289
H       1.459052   -0.690250    2.954006
H      -0.886266   -0.420946   -0.295636
H       1.061819   -0.891356   -1.769051
