20

C       0.041088    1.415152   -0.322736
C       1.298075    0.672314   -0.052733
C       2.011164    0.847025    1.288244
C       1.871762   -0.465791    2.071820
C       0.395529   -0.299370    2.481416
C       0.421062    1.156453    2.962030
O       1.375164    1.821884    2.124989
C      -0.505463   -0.525733    1.242041
N       0.001608   -0.020154   -0.045819
H      -0.274396    2.117353    0.443672
H      -0.227930    1.689616   -1.339805
H       1.952899    0.391630   -0.877007
H       3.041592    1.174938    1.128400
H       2.060569   -1.351741    1.460578
H       2.532725   -0.482007    2.943132
H       0.081901   -0.980315    3.277064
H      -0.551913    1.654913    2.874925
H       0.748380    1.226130    4.008507
H      -0.629322   -1.608691    1.117866
H      -1.505966   -0.112191    1.416567
