17

C      -0.024498    1.453437   -0.138323
C       1.313708    0.765179    0.029463
O       2.156851    0.375452   -1.028371
C       1.584766   -0.803020   -1.545103
C       1.024707   -1.966725   -0.683578
O       0.987826   -1.995886    0.730925
C      -0.024639   -1.056638    1.160395
C       0.050783   -0.044590    0.040252
C       0.123387   -0.898732   -1.228635
H      -0.344954    2.079512    0.688736
H      -0.337613    1.802856   -1.116644
H       1.851398    0.932480    0.956740
H       2.005624   -1.069144   -2.508853
H       1.096636   -2.956949   -1.122981
H      -0.994914   -1.565255    1.243793
H       0.264927   -0.666526    2.139526
H      -0.713118   -1.006334   -1.910891
