21

C       0.140084    1.405303    0.051519
C      -0.135088   -0.075517   -0.145304
O       0.824751   -0.585019   -1.057451
C       0.709279   -1.974315   -1.318364
C      -0.543572   -2.303082   -2.019477
C      -1.562189   -2.565526   -2.601683
C       1.918066   -2.392362   -2.128293
C       3.215446   -2.684728   -1.425250
C       2.419637   -3.809257   -2.039661
H       1.149458    1.562078    0.442458
H       0.054205    1.939805   -0.898750
H      -0.577527    1.834342    0.757349
H      -0.062369   -0.615644    0.814155
H      -1.151960   -0.234726   -0.532477
H       0.720063   -2.528288   -0.362045
H      -2.461514   -2.802247   -3.114745
H       1.974326   -1.905314   -3.096206
H       4.136008   -2.376249   -1.907489
H       3.233758   -2.604891   -0.343386
H       1.901625   -4.489985   -1.372030
H       2.789706   -4.276019   -2.945210
