15

O       0.039686    0.028753   -0.127242
C      -0.028430    1.207102    0.000437
C      -1.138879    2.210019    0.312349
C      -0.053781    3.272423    0.639861
C       1.083573    2.354825    0.028175
C       2.229991    2.083107    0.874167
C       3.144983    1.834969    1.612376
C       1.441656    2.728444   -1.332569
C       1.684158    3.027386   -2.471154
H      -1.721934    2.441966   -0.584412
H      -1.826393    1.913797    1.107511
H      -0.156949    4.239890    0.151754
H       0.097474    3.410231    1.710565
H       3.966222    1.617540    2.249686
H       1.922140    3.288852   -3.472662
