22

C      -0.077733    1.474450    0.027465
C       0.071050   -0.018949   -0.031127
C       0.271084   -0.777346   -1.341762
C       0.211864   -2.209984   -0.757285
C       0.321143   -3.376521   -1.717808
C       1.259169   -2.107169    0.380041
C       0.687925   -0.859566    1.037744
N      -0.791939   -0.849392    0.856726
C      -1.079580   -2.076933    0.080151
H       0.819570    1.974774   -0.354165
H      -0.930126    1.809271   -0.574729
H      -0.244682    1.804906    1.056084
H      -0.525425   -0.585173   -2.069759
H       1.233420   -0.549650   -1.813653
H       1.276845   -3.367274   -2.253268
H       0.248197   -4.333482   -1.188975
H      -0.477775   -3.350038   -2.467337
H       1.255238   -2.983326    1.037773
H       2.278018   -1.958209    0.006174
H       1.070418   -0.453063    1.967059
H      -1.977225   -1.934449   -0.530937
H      -1.246791   -2.922017    0.756763
