18

C      -0.132982    1.375556    0.106657
N       0.183602   -0.036473   -0.026535
C       0.747860   -0.704916    1.036073
N       0.631939   -2.016743    1.185533
N       1.416169   -2.239664    2.303150
C       1.611662   -3.571999    2.814180
C       1.895788   -1.065731    2.751406
N       2.753335   -0.952032    3.835658
N       1.502273   -0.064092    1.979925
H       0.755320    1.909788    0.447727
H      -0.421220    1.767765   -0.872125
H      -0.945323    1.581468    0.820827
H      -0.513138   -0.592996   -0.499415
H       2.522867   -3.592674    3.417065
H       0.763913   -3.906021    3.424589
H       1.726449   -4.258986    1.973274
H       2.445606   -1.438928    4.667278
H       2.931952    0.022645    4.038426
