12

N      -0.120006    1.311943    0.007984
C      -0.014648    0.040862    0.000997
C      -1.227093   -0.783141    0.003008
N      -1.258338   -2.061963   -0.003342
O      -0.000860   -2.703013   -0.013073
C       1.125634   -1.941989   -0.014995
N       1.196999   -0.662359   -0.008811
C       2.292616   -2.762166   -0.025090
C       3.270911   -3.459254   -0.033604
H       0.815283    1.727064    0.005290
H      -2.197838   -0.296433    0.010474
H       4.142373   -4.068301   -0.041136
