16

O      -0.036696    1.422299   -0.029168
C       0.009897    0.051804    0.057512
C      -0.308305   -0.854204   -1.125993
C      -1.193318   -0.924346    0.084487
C      -0.498003   -1.758943    1.145154
C      -1.079850   -2.455775    2.314178
N      -0.380393   -3.212631    1.259627
C       0.657081   -0.753652    1.165845
O       1.583884   -0.564752    1.899888
H       0.752749    1.728383   -0.489672
H      -0.713720   -0.299216   -1.966624
H       0.333177   -1.689176   -1.391713
H      -2.239837   -0.649958    0.072883
H      -0.559288   -2.413056    3.266425
H      -2.163459   -2.516361    2.378178
H      -1.058337   -3.656856    0.642925
