20

C      -0.056897    1.543674    0.015624
C       0.090967    0.045617   -0.029309
N      -0.787387   -0.818717    0.816538
C       0.678803   -0.789819    1.054298
C       1.432215   -1.963647    0.426240
C       0.970737   -3.332638    0.957992
O       1.637490   -4.419475    0.329795
C       1.173918   -1.754247   -1.056134
C       0.458991   -0.655366   -1.302645
H       0.828252    2.039413   -0.397193
H      -0.924738    1.872904   -0.567769
H      -0.191045    1.896422    1.043562
H      -1.228648   -0.232143    1.524686
H       1.040627   -0.349279    1.977953
H       2.507812   -1.878646    0.635385
H       1.214483   -3.407982    2.023406
H      -0.118750   -3.407166    0.857263
H       1.243027   -4.540633   -0.538728
H       1.531086   -2.448714   -1.809001
H       0.151991   -0.300404   -2.280126
