20

C      -0.102636    1.611432    0.014262
C       0.062241    0.094972    0.000626
C       1.119588   -0.567992   -0.886269
N       1.319341   -0.677312   -2.133453
O       0.394176    0.112459   -2.857619
C       1.773082   -1.266441    0.247242
C       2.166594   -0.245443    1.302425
C       0.725522   -0.633481    1.201739
C      -0.042836   -1.274742    2.320279
H       0.839189    2.121123    0.237695
H      -0.447339    1.960073   -0.962316
H      -0.836541    1.915033    0.768695
H      -0.902816   -0.375540   -0.228040
H       0.652967   -0.064036   -3.767868
H       2.191436   -2.265014    0.230789
H       2.699743   -0.668157    2.149153
H       2.521464    0.737774    1.007344
H      -0.479337   -0.519007    2.984662
H      -0.862979   -1.892870    1.937981
H       0.604001   -1.913165    2.930794
