15

C      -0.034581    1.486156    0.037719
C       0.007263   -0.001857   -0.030415
N      -0.032751   -0.728118   -1.112637
C       0.013544   -2.049942   -0.685446
C      -0.022496   -3.174048   -1.541119
N      -0.053084   -4.139085   -2.184187
C       0.094189   -2.106580    0.693967
N       0.249372   -3.163495    1.576624
N       0.086644   -0.799156    1.100503
H       0.862985    1.898825    0.512872
H      -0.097581    1.876155   -0.978556
H      -0.903507    1.843697    0.602292
H       0.238031   -4.054318    1.094803
H      -0.420958   -3.175700    2.336729
H       0.203797   -0.485151    2.050159
