18

C      -0.225213    1.552640   -0.032916
N       0.171171    0.149346    0.084572
C       1.388956   -0.506515   -0.292048
C       2.707785    0.174110    0.225338
N       2.359791    1.449011    0.898791
C       2.197461    0.156090    1.607758
C       0.864229   -0.546760    1.124635
C       0.205570   -1.630357    1.925808
H       0.412894    2.091054   -0.735973
H      -1.261101    1.590296   -0.394204
H      -0.167564    2.069588    0.927113
H       1.381127   -1.267877   -1.066772
H       3.704803   -0.021086   -0.147211
H       3.234033    1.858890    1.228472
H       2.715479   -0.054333    2.534799
H      -0.319453   -1.213876    2.794648
H      -0.524741   -2.162401    1.310991
H       0.942641   -2.350450    2.299317
