18

C      -0.075715    1.470091   -0.054543
C       0.025673   -0.041041    0.071481
N       1.064457   -0.622217   -0.843557
C       1.822048   -1.114305    0.293387
C       0.832404   -0.536384    1.279640
C       1.001463   -2.048813    1.195967
N      -0.032957   -2.869464    0.624512
C       1.760461   -2.614678    2.290985
N       2.352538   -3.111704    3.153402
H       0.907568    1.937016    0.053572
H      -0.473462    1.740582   -1.037266
H      -0.744356    1.877697    0.711894
H      -0.957910   -0.509229   -0.033994
H       0.706211   -1.366279   -1.437769
H       2.905584   -1.150403    0.299245
H       1.001354   -0.001863    2.205412
H       0.338832   -3.773699    0.350321
H      -0.773635   -3.039590    1.298235
