16

C       0.032036    1.355849    0.009727
N      -0.046915   -0.106748    0.001831
C       0.097709   -0.757006   -1.223158
N       0.349760   -0.128648   -2.291250
O      -0.048275   -2.115163   -1.165979
C      -0.704940   -2.574038   -0.008390
O      -0.034763   -2.128350    1.146609
C       0.111980   -0.770927    1.217550
N       0.376555   -0.154759    2.289708
H       1.072987    1.692000    0.005744
H      -0.463104    1.727584   -0.885211
H      -0.452888    1.717331    0.914409
H       0.348506   -0.770936   -3.080654
H      -1.747129   -2.226972   -0.000320
H      -0.651838   -3.661841   -0.014902
H       0.384496   -0.805997    3.071706
