20

C       0.649581   -0.044079   -1.496940
C       0.041249    0.109725   -0.100318
O       0.015700    1.471923    0.305366
C      -1.343101   -0.549367    0.046702
C      -2.438412    0.149706   -0.749060
C      -1.336216   -2.099579   -0.034488
C      -1.811349   -2.041916    1.428311
O      -1.716801   -0.605585    1.455352
H       1.656945    0.380311   -1.507301
H       0.714772   -1.092778   -1.802219
H       0.053999    0.485034   -2.250409
H       0.692086   -0.381823    0.632349
H      -0.379304    1.986345   -0.406264
H      -2.231899    0.136662   -1.824609
H      -3.399379   -0.344239   -0.582382
H      -2.537865    1.187858   -0.417995
H      -2.030329   -2.537696   -0.753685
H      -0.348248   -2.543313   -0.175358
H      -2.837725   -2.389370    1.603627
H      -1.152488   -2.512010    2.168072
