22

C       0.050523    1.627130    0.147100
C       0.007872    0.107627    0.010698
N       0.762877   -0.517477    1.099805
C       0.777013   -1.985504    1.168894
C       1.457367   -2.682885   -0.030770
C       1.513095   -2.369678    2.495913
N       0.942975   -1.844421    3.720783
C      -0.615621   -2.463975    1.277807
N      -1.689931   -2.877474    1.382559
H       1.076858    2.004282    0.066932
H      -0.537991    2.100827   -0.643827
H      -0.349051    1.938344    1.116154
H      -1.028086   -0.241114    0.080801
H       0.371804   -0.181013   -0.989667
H       1.729077   -0.202499    1.067350
H       2.504674   -2.367127   -0.083837
H       1.431179   -3.770788    0.079308
H       0.969662   -2.426893   -0.973826
H       1.572207   -3.460404    2.561717
H       2.542988   -2.000793    2.391484
H       0.738520   -0.857762    3.583224
H       0.051826   -2.295842    3.907296
