25

C       0.154602    1.605457   -0.430333
O      -0.286838    0.273421   -0.542272
C       0.667550   -0.608612   -1.096061
C       1.859965   -0.950270   -0.170456
C       2.263556   -2.403776   -0.543571
C       1.261487   -2.850320   -1.637807
C       0.010934   -1.966079   -1.442835
C      -0.844390   -2.477414   -0.268367
C      -0.853606   -1.863274   -2.703138
H       0.995880    1.709576    0.270668
H       0.468135    2.012896   -1.405044
H      -0.685612    2.196437   -0.056647
H       1.054237   -0.169479   -2.033213
H       2.687817   -0.246192   -0.288724
H       1.527372   -0.882323    0.870147
H       3.295637   -2.466899   -0.898304
H       2.198308   -3.055212    0.332381
H       1.684991   -2.664998   -2.632502
H       1.026599   -3.917974   -1.587188
H      -0.259577   -2.593677    0.649125
H      -1.661007   -1.784498   -0.053290
H      -1.274015   -3.454533   -0.514043
H      -1.304832   -2.828757   -2.957170
H      -1.663257   -1.141441   -2.555141
H      -0.261164   -1.534476   -3.564662
