16

O      -0.488887    0.683279   -0.467551
C       0.248979    1.027631    0.420251
C       1.362158    2.041240    0.239051
C       1.479826    2.768219   -1.095858
C       0.353242    3.687186   -1.311656
N       1.467979    4.152726   -0.449240
C       1.276203    3.463492    0.883360
C       0.028071    3.885913    1.613275
O      -0.826585    3.128636    2.000409
H       0.185147    0.584143    1.435111
H       2.296927    1.562057    0.548696
H       2.193518    2.524242   -1.874181
H       0.323374    4.223411   -2.254135
H      -0.619843    3.468940   -0.881721
H       2.140033    3.694673    1.516273
H      -0.057346    4.985290    1.759314
