14

N      -0.046302    1.414878   -0.078559
C      -0.037606    0.028880   -0.034210
N      -1.179852   -0.634973    0.055728
C      -1.149195   -1.973776    0.026267
C       0.053820   -2.656104   -0.083820
O       0.078156   -4.009005   -0.111679
N       1.219587   -2.003939   -0.158785
C       1.176459   -0.688848   -0.136669
O       2.330390    0.015979   -0.200161
H       0.797718    1.856854    0.253929
H      -0.894207    1.817895    0.293611
H      -2.089745   -2.508066    0.097412
H       1.005347   -4.267415   -0.188200
H       3.050007   -0.627459   -0.249927
