16

O      -0.036566    1.353321    0.297528
N       0.077275   -0.044543    0.256534
C      -1.029792   -0.585252   -0.065598
C      -2.286732    0.172732   -0.404882
N      -3.375518   -0.743409   -0.718212
C      -3.192916   -1.925247   -1.417821
O      -4.075337   -2.458155   -2.062909
N      -1.916514   -2.445886   -1.294352
C      -1.100535   -2.086233   -0.140491
H       0.857048    1.627278    0.529747
H      -2.570951    0.804000    0.445163
H      -2.058924    0.860766   -1.233567
H      -4.266689   -0.321048   -0.931681
H      -1.857547   -3.396611   -1.626660
H      -0.095157   -2.496041   -0.250927
H      -1.526331   -2.479372    0.797772
