14

F      -0.088424    0.016747    0.006399
C      -0.056014    1.342613    0.011895
C      -1.260566    2.030551    0.030338
C      -1.251685    3.422784    0.036419
C      -0.046120    4.123753    0.024091
C       1.148810    3.418013    0.005631
C       1.173570    2.017200   -0.000844
C       2.486658    1.334134   -0.020560
O       2.678798    0.142944   -0.027563
H      -2.184611    1.464742    0.039618
H      -2.193921    3.960068    0.050864
H      -0.042732    5.207461    0.028859
H       2.097354    3.947661   -0.004218
H       3.339585    2.052217   -0.028965
