19

N      -0.139864    1.282159    0.010117
C      -0.070465    0.022697    0.003196
O      -1.198286   -0.714647    0.008815
C      -1.024294   -2.130515   -0.000131
C      -2.409091   -2.760816    0.009104
C      -2.341392   -4.280805    0.000403
O      -3.681729   -4.769110    0.009928
C      -3.826132   -6.108820    0.006304
N      -4.979624   -6.619232    0.012860
H       0.795960    1.682258    0.004343
H       0.849000   -0.580125   -0.007555
H      -0.462789   -2.434073   -0.895421
H      -0.446719   -2.443332    0.881646
H      -2.955226   -2.426089    0.896271
H      -2.971201   -2.416716   -0.864392
H      -1.816137   -4.643415   -0.894917
H      -1.800028   -4.652865    0.882149
H      -2.871354   -6.654015   -0.003090
H      -4.910839   -7.634678    0.008493
