21

C      -0.065300    1.529069   -0.042836
C       0.009825    0.012005    0.000782
C      -1.194180   -0.657914   -0.636101
C       1.348583   -0.658459   -0.146765
C       0.658886   -0.678141    1.213675
C       1.271722    0.125837    2.361683
O       2.302572   -0.583403    3.020920
C       0.114166   -1.925972    1.683180
C      -0.303547   -2.951903    2.157320
H       0.838840    2.012986    0.331807
H      -0.204662    1.859385   -1.078689
H      -0.916568    1.902265    0.537735
H      -1.271429   -0.368594   -1.690442
H      -1.129614   -1.746580   -0.584018
H      -2.122138   -0.354440   -0.138235
H       1.403533   -1.591811   -0.696110
H       2.236452   -0.038662   -0.222873
H       1.733976    1.039685    1.983360
H       0.475305    0.417821    3.064092
H       1.932994   -1.433648    3.288164
H      -0.688741   -3.861487    2.547214
