19

C      -0.071128    1.508973   -0.049925
C       0.007249    0.009058    0.011255
C      -0.856204   -0.816784    0.907199
O      -1.666121   -1.842332    0.398613
C       0.627526   -0.948325    1.073257
C       1.198510   -1.834361   -0.037925
C       0.653440   -0.837262   -1.115165
C      -0.225254   -1.353162   -2.231135
O      -0.059766   -1.064760   -3.392161
H       0.898951    1.946894   -0.309484
H      -0.794508    1.833518   -0.807354
H      -0.383862    1.930646    0.910641
H      -1.335902   -0.223639    1.687418
H      -1.732588   -2.531747    1.068730
H       1.126081   -0.711291    2.006680
H       2.287816   -1.885552   -0.048146
H       0.796392   -2.851127   -0.079258
H       1.471332   -0.277178   -1.575847
H      -1.048736   -2.021832   -1.911974
