17

C      -0.085894    1.531796    0.094128
O       1.312376    1.912225   -0.002858
C       2.163479    0.735354    0.204463
C       1.219296   -0.256992    0.889036
C       0.087528    0.036447   -0.092099
O      -0.680730   -1.014082   -0.644760
C       0.320220   -0.350834   -1.479871
C       1.738015   -0.697185   -1.789733
C       2.625043    0.006627   -1.069831
H      -0.492686    1.832634    1.068256
H      -0.643290    2.024941   -0.705927
H       3.017293    1.081890    0.788897
H       1.568463   -1.286217    0.874978
H       0.952817    0.039848    1.908544
H      -0.168506    0.245646   -2.251021
H       2.017041   -1.316136   -2.636424
H       3.689078   -0.022732   -1.287730
