16

C      -0.102352    1.441799    0.010792
C      -0.004409   -0.007979    0.003010
C       0.090536   -1.211979   -0.003692
C       0.142956   -2.618652   -0.011507
C       1.205118   -3.442460   -0.022551
C       0.742559   -4.829826   -0.027081
N       1.459382   -5.874079   -0.036941
O      -0.636726   -4.818858   -0.018537
C      -1.107439   -3.474316   -0.008449
H       0.889277    1.906324    0.003758
H      -0.649478    1.804497   -0.866536
H      -0.632894    1.796087    0.901647
H       2.250356   -3.175193   -0.027701
H       0.873164   -6.710083   -0.037714
H      -1.721974   -3.305548    0.884777
H      -1.732961   -3.296135   -0.892162
