18

C       0.153757    1.632290   -0.407233
C       0.245776    0.131405   -0.242947
C       1.505321   -0.648912   -0.370815
O       2.624961    0.059006    0.142779
C       2.109857   -0.040758    1.504602
C       2.177341    1.230866    2.320869
C       0.782070   -0.622540    0.985602
C       0.025736   -1.622416    1.655872
N      -0.588037   -2.428219    2.217887
H       1.131112    2.100591   -0.283196
H      -0.203477    1.866501   -1.415241
H      -0.547066    2.075943    0.306240
H      -0.603087   -0.420066   -0.643247
H       1.689339   -1.470687   -1.053700
H       2.661994   -0.840325    2.014019
H       1.589459    2.040780    1.888517
H       1.805884    1.031801    3.331473
H       3.218200    1.559494    2.403517
