12

C      -0.149267    1.577794    0.106476
N       0.038907    0.144118    0.143006
C      -0.954955   -0.576611   -0.139830
N      -0.946186   -1.973764   -0.152706
C       0.091486   -2.849042    0.125111
O       1.214607   -2.561696    0.438224
H       0.556152    2.019303   -0.606527
H      -1.170103    1.889664   -0.172342
H       0.087395    2.001004    1.089205
H      -1.946687   -0.181450   -0.409786
H      -1.822047   -2.408825   -0.398595
H      -0.263597   -3.895248    0.016283
