19

O      -0.056344    1.391912   -0.021522
C       0.023754   -0.033111    0.047387
C      -1.424633   -0.555278    0.052567
C      -1.462495   -2.073381   -0.162368
C      -0.653030   -2.455275   -1.402615
O       0.679875   -1.970914   -1.326690
C       0.729439   -0.566092   -1.226858
C       0.752133   -0.450101    1.250469
C       1.379182   -0.746609    2.232741
H       0.798441    1.748403    0.243781
H      -1.914015   -0.265700    0.986164
H      -1.945156   -0.040823   -0.764383
H      -1.039734   -2.582892    0.710575
H      -2.496989   -2.416341   -0.274634
H      -0.574072   -3.540692   -1.508858
H      -1.143006   -2.058675   -2.309126
H       0.239883   -0.083384   -2.088772
H       1.786435   -0.284568   -1.222159
H       1.927217   -1.017644    3.101387
