16

C      -0.072426    1.386962    0.058296
N      -0.013335   -0.049722    0.058290
C      -1.166802   -0.908456    0.084598
C      -0.556096   -2.294272    0.042929
N      -1.367643   -3.398160    0.120181
C       0.786021   -2.197512    0.003732
C       1.174764   -0.773497    0.009731
O       2.285716   -0.279414   -0.025110
H       0.958040    1.747527    0.030457
H      -0.609406    1.776247   -0.817771
H      -0.562133    1.777281    0.960764
H      -1.773151   -0.772673    0.993558
H      -1.833285   -0.738971   -0.777340
H      -2.310641   -3.296642   -0.223031
H      -0.949474   -4.282785   -0.124513
H       1.512178   -2.995846   -0.028194
