15

C      -0.367683    1.356355    0.247355
C      -0.040799   -0.090318    0.055629
N       0.265919   -0.559270   -1.151232
N       0.495933   -1.879529   -0.962785
C       0.355437   -2.239761    0.331639
O       0.594723   -3.532932    0.692136
C      -0.335793   -4.152365    1.488759
O      -0.158184   -5.245783    1.916663
C       0.004299   -1.114048    1.039971
H       0.322786    1.831555    0.952403
H      -0.300084    1.879139   -0.708788
H      -1.380103    1.488354    0.644096
H       0.769109   -2.465977   -1.733367
H      -1.221277   -3.516534    1.656525
H      -0.162565   -1.033611    2.101347
