17

O      -0.213323   -0.007899    0.205647
C      -0.102295    1.177437    0.094770
N      -1.055395    2.218012    0.026923
C      -0.069808    3.152721   -0.579668
C       0.497385    4.527836   -0.131887
N       1.848227    4.119268    0.414595
C       1.363503    3.018083    1.325904
C       1.019227    2.256029    0.022922
C       2.293980    2.962336   -0.504994
H      -2.002021    2.071208   -0.298836
H      -0.110633    3.088161   -1.672862
H       0.618693    5.204558   -0.980836
H      -0.057764    5.043109    0.654278
H       2.197286    2.570601    1.871046
H       0.554519    3.289332    2.007563
H       2.348908    3.196386   -1.570710
H       3.246532    2.578947   -0.138857
