25

C       0.146517    1.392715   -0.610808
C       1.429342    1.622004    0.231685
C       1.300299    0.176477    0.804093
C      -0.166745    0.142295    0.252560
C       2.225231   -0.820124    0.086007
C       2.010809   -2.266081    0.557805
C       2.159864   -2.385826    2.080787
C       1.229871   -1.401934    2.804027
C       1.460187    0.037752    2.320893
H      -0.596523    2.193534   -0.610791
H       0.368497    1.137765   -1.650402
H       2.351535    1.853204   -0.310147
H       1.287043    2.381428    1.007176
H      -0.902691    0.351045    1.035427
H      -0.480778   -0.761625   -0.276903
H       2.083685   -0.751273   -0.999770
H       3.267760   -0.528448    0.279844
H       1.005684   -2.600654    0.267073
H       2.715967   -2.933872    0.049826
H       1.956666   -3.412990    2.404457
H       3.200861   -2.170445    2.360615
H       0.185245   -1.685381    2.614461
H       1.374964   -1.463672    3.888578
H       2.476269    0.354410    2.600048
H       0.772226    0.724672    2.829404
