17

C       0.218933    1.375732    0.289501
N      -0.223562    0.090298   -0.238523
C       0.603688   -0.445654   -1.280595
C       1.987108   -1.013679   -0.987465
C       0.844609   -1.962814   -1.306572
C       0.283765   -2.765209   -0.258224
N      -0.177042   -3.383505    0.605258
C       0.424120    0.181634   -2.569375
C       0.296779    0.713882   -3.639458
H       1.237933    1.362681    0.711360
H       0.195389    2.122560   -0.510072
H      -0.475859    1.695897    1.069813
H      -0.368807   -0.589432    0.498500
H       2.766372   -0.916508   -1.733616
H       2.316912   -0.976080    0.044365
H       0.838414   -2.427706   -2.285258
H       0.168249    1.184239   -4.583078
