18

C      -0.037281    1.512621   -0.138844
C      -0.007085    0.017207    0.059233
N       1.278717   -0.671087   -0.093315
C       0.617723   -0.673989    1.241026
C       1.364263    0.077964    2.334320
C       2.548123   -0.714846    2.859746
O       2.866690   -0.771475    4.018418
C      -0.000515   -1.903229    1.674465
C      -0.491455   -2.935117    2.050951
H       0.882124    1.988080    0.207808
H      -0.143618    1.742690   -1.204260
H      -0.886649    1.958773    0.388616
H      -0.881950   -0.500338   -0.330492
H       1.153937   -1.575972   -0.539730
H       1.766882    1.007724    1.916809
H       0.707667    0.331146    3.170846
H       3.131537   -1.237261    2.069648
H      -0.928364   -3.844088    2.384147
