25

C       0.077973    1.615154    0.020839
C       0.007672    0.081361   -0.011164
C       0.639288   -0.468084   -1.310289
C       0.244142   -1.908265   -1.665928
C       0.679697   -3.001217   -0.679782
C       0.063749   -2.882863    0.728265
C       0.669526   -1.787912    1.587294
C       1.327860   -2.242087    2.864064
C       0.637238   -0.499240    1.238883
H       1.119099    1.958520   -0.006016
H      -0.441037    2.054704   -0.836666
H      -0.378638    2.012901    0.933132
H      -1.057575   -0.200740   -0.028815
H       0.334640    0.178996   -2.143282
H       1.731725   -0.385145   -1.237328
H      -0.849171   -1.953864   -1.776713
H       0.655309   -2.148085   -2.654458
H       0.394684   -3.972460   -1.103003
H       1.773959   -3.010789   -0.593436
H      -1.019743   -2.721611    0.626259
H       0.175784   -3.842608    1.244349
H       2.137148   -2.956240    2.660438
H       1.747062   -1.404866    3.428684
H       0.612365   -2.766440    3.511560
H       1.106994    0.222121    1.906711
