19

C      -0.194737    1.483723   -0.202046
C      -0.056582   -0.028179   -0.065290
C       1.166709   -0.611045   -0.893365
O       1.696389    0.072231   -1.985955
C       1.919308   -0.564084    0.429010
O       3.054087   -0.244235    0.685908
C       0.635247   -0.545486    1.253413
C       0.714918    0.271140    2.543689
O       1.695909   -0.269781    3.408362
H       0.744243    2.004596    0.014170
H      -0.477857    1.741330   -1.226112
H      -0.958243    1.876112    0.475925
H      -1.002829   -0.523480   -0.289853
H       0.940075   -1.644969   -1.182487
H       2.471174    0.557556   -1.676738
H       0.309830   -1.564881    1.484864
H       0.923446    1.325264    2.310651
H      -0.236746    0.237662    3.083771
H       2.536828   -0.212814    2.936453
