19

C       0.121320    1.607390   -0.156795
C       0.047842    0.126659    0.068759
C       0.572347   -0.901212   -0.953943
N       1.278926   -1.630272    0.135437
C       0.742244   -0.720813    1.186849
C       1.718263   -0.274435    2.243774
C      -0.684664   -1.055209    1.582237
N      -1.204849   -1.771261    2.472476
O      -1.263812   -0.307255    0.574047
H       1.133730    1.898377   -0.451985
H      -0.565809    1.906971   -0.955680
H      -0.151340    2.155340    0.749652
H      -0.230984   -1.442038   -1.464699
H       1.269775   -0.504158   -1.699897
H       1.017814   -2.604303    0.251011
H       2.653938    0.055958    1.785239
H       1.303605    0.537904    2.848733
H       1.941231   -1.108365    2.917589
H      -2.223840   -1.783394    2.396540
