18

C      -0.079213    1.473459   -0.033170
N       1.224214    0.790760    0.095395
C       0.000871   -0.004664    0.017445
C      -0.452531   -0.837300    1.245631
C      -1.644922   -1.610442    0.687558
C      -1.541236   -1.659625   -0.636406
C      -2.275472   -1.427482   -1.933139
O      -1.307010   -0.373523   -2.242251
C      -0.408639   -0.855029   -1.181213
H      -0.391190    2.029755    0.846954
H      -0.347346    1.926363   -0.983464
H       1.708270    0.789175   -0.799570
H       0.362757   -1.480883    1.600782
H      -0.738676   -0.200362    2.089101
H      -2.486942   -1.924338    1.293016
H      -2.222453   -2.233287   -2.676617
H      -3.302394   -1.053620   -1.867000
H       0.440598   -1.381846   -1.640615
