18

O       0.052440    1.447000   -0.065378
C       0.080598    0.039431    0.006298
C      -1.331587   -0.555825    0.047840
C      -2.136766   -0.060047    1.253541
C      -3.555481   -0.587461    1.283655
O      -4.023746   -1.206977    2.204847
O      -2.024957   -0.126891   -1.139350
C      -1.996813   -0.941606   -2.218691
N      -2.394435   -0.513673   -3.335022
H      -0.460125    1.676946   -0.850125
H       0.623323   -0.401333   -0.845449
H       0.622113   -0.225893    0.920144
H      -1.265696   -1.653068    0.058334
H      -1.636084   -0.353435    2.180048
H      -2.163375    1.035585    1.205208
H      -4.156738   -0.358474    0.378390
H      -1.628227   -1.951681   -1.992917
H      -2.347744   -1.253870   -4.032060
