17

O       0.104498    1.294877    0.374514
C       0.026057   -0.052447    0.011674
C      -1.391096   -0.626140    0.029703
O      -2.287878    0.284155   -0.654706
C      -2.578208   -0.703112   -1.675279
C      -1.517274   -1.674265   -1.116345
C      -0.175773   -1.670881   -1.865097
C       0.506931   -0.370872   -1.426068
O       1.239130    0.315634   -2.084311
H      -0.561113    1.754640   -0.154010
H       0.665630   -0.616939    0.705671
H      -1.761755   -0.886505    1.025170
H      -3.612884   -1.058095   -1.601367
H      -2.401673   -0.314624   -2.685114
H      -1.875938   -2.669575   -0.857624
H       0.451171   -2.513078   -1.544977
H      -0.263272   -1.722456   -2.952895
