17

C       0.023136    1.338657    0.259576
O      -0.034695   -0.007425   -0.200040
C      -1.282834   -0.567842   -0.070748
C      -1.850080   -1.108464    1.213644
O      -3.040080   -0.802743    1.853348
C      -1.622673   -2.069103    0.053868
C      -2.640361   -1.886053   -1.102653
O      -3.628245   -0.883033   -0.748892
C      -2.334130   -0.468580   -1.230743
H       1.049126    1.680004    0.108349
H      -0.658094    1.988783   -0.306421
H      -0.232984    1.405954    1.324605
H      -1.054399   -1.221686    1.948646
H      -3.697982   -0.714568    1.150507
H      -0.952410   -2.916881    0.116963
H      -2.939192   -2.624891   -1.835211
H      -2.294930    0.191825   -2.088766
