18

C      -0.171422    1.482670    0.030744
N       0.090445    0.052825    0.035301
C       1.451378   -0.410024   -0.188206
C       0.802605   -0.563805    1.148705
C       1.330131    0.207986    2.339658
C       0.269900    0.498187    3.393744
O      -0.904879    0.242695    3.247562
C       0.767779    1.121261    4.611333
C       1.199578    1.638646    5.608828
H       0.675962    2.108921    0.355541
H      -0.431843    1.786342   -0.988092
H      -1.026119    1.689105    0.681255
H       1.569914   -1.260596   -0.854875
H       2.241351    0.338412   -0.267401
H       0.397371   -1.537422    1.417759
H       2.140253   -0.353984    2.824202
H       1.783979    1.164142    2.053471
H       1.560371    2.095740    6.498314
