21

C       0.002314    1.626790   -0.116147
C       0.050333    0.107606   -0.034715
C       1.036891   -0.751301   -0.862858
C       2.449139   -0.180713   -0.833804
O       2.723901    0.436603    0.421764
C       2.068565   -0.157834    1.549683
C       2.025403    0.882565    2.660168
C       0.705095   -0.701788    1.119973
O       0.978976   -1.776297    0.171209
H       0.988551    2.076937   -0.000106
H      -0.408868    1.938437   -1.083021
H      -0.657207    2.035004    0.657680
H      -0.950169   -0.307988   -0.185178
H       0.750032   -1.125484   -1.850139
H       3.159171   -0.997979   -1.032211
H       2.588722    0.594993   -1.595745
H       2.651338   -1.029870    1.888884
H       1.380126    1.725811    2.400915
H       1.653438    0.431692    3.585655
H       3.031432    1.268086    2.845942
H       0.096132   -1.032440    1.966699
