25

C      -0.002825    1.536299    0.137246
C       0.025372    0.006429    0.089255
C      -1.360819   -0.622819    0.088830
C      -1.388447   -2.167914    0.033796
C      -2.584427   -2.549561    0.940621
C      -3.128163   -1.186773    1.428740
C      -3.634713   -1.161441    2.864093
C      -4.168281    0.207183    3.295109
O      -2.031668   -0.288186    1.299025
H       1.009959    1.950432    0.152780
H      -0.518911    1.949292   -0.736819
H      -0.529480    1.882705    1.030184
H       0.555682   -0.334018   -0.809069
H       0.577580   -0.387693    0.951650
H      -1.941144   -0.220917   -0.762246
H      -1.497883   -2.531791   -0.991078
H      -0.452560   -2.575716    0.427664
H      -3.351694   -3.123441    0.414587
H      -2.253403   -3.150310    1.793172
H      -3.938891   -0.858436    0.752319
H      -4.419810   -1.921669    2.963070
H      -2.811276   -1.468952    3.520887
H      -4.507251    0.190010    4.335437
H      -3.391030    0.969701    3.199467
H      -5.016422    0.514157    2.672757
