17

C      -0.184606    1.501436    0.057954
C      -0.047097    0.006645    0.064515
C      -0.915219   -0.929946    0.880472
C       0.576769   -0.836294    1.127954
O       1.360631   -1.813374    0.474541
C       1.552985   -1.320085   -0.844953
O       0.397713   -0.561385   -1.163581
C       2.782195   -0.513860   -0.947077
C       3.790678    0.132883   -1.039324
H       0.765395    1.973971   -0.208244
H      -0.941778    1.815298   -0.667905
H      -0.491859    1.862297    1.043907
H      -1.576485   -0.491176    1.621275
H      -1.277178   -1.827664    0.393402
H       0.993284   -0.453119    2.052802
H       1.598523   -2.176277   -1.524460
H       4.683595    0.702541   -1.122323
