16

N      -0.009748    1.296917    0.447284
C       0.032536    0.034556   -0.046817
O       1.082616   -0.499190   -0.386785
C      -1.288760   -0.689338   -0.173896
C      -1.659265   -0.941795   -1.673608
C      -1.060152   -2.357333   -1.531607
O      -0.633075   -3.156137   -2.307963
C      -1.079148   -2.253314    0.014222
O      -0.045192   -2.751794    0.782119
H       0.853804    1.807850    0.537293
H      -0.868437    1.738528    0.723713
H      -2.074849   -0.242826    0.437062
H      -2.739607   -0.959513   -1.842087
H      -1.187473   -0.304301   -2.423102
H      -2.016680   -2.687664    0.384256
H       0.762438   -2.341818    0.433411
