10

N       0.189328   -1.097359   -0.005721
C       0.077119    0.054785    0.002102
C      -0.097816    1.453439    0.012149
C      -1.201583    2.260899    0.032175
N      -0.798997    3.572309    0.033550
C       0.501789    3.510962    0.014769
O       1.007952    2.255556    0.000796
C       1.421883    4.591356    0.007548
N       2.172050    5.471006    0.001655
H      -2.240804    1.974851    0.045371
