19

C      -0.292990    1.518832    0.047846
C       0.211499    0.079717   -0.010528
C       1.334361   -0.183675   -1.020204
O       1.861772   -1.446635   -0.634438
C       1.867470   -1.506809    0.775841
C       3.264554   -1.281342    1.359458
O       4.220558   -0.957204    0.710761
C       0.854021   -0.443655    1.299499
O       1.595690    0.548376    1.999662
H       0.518383    2.208916    0.296084
H      -0.706677    1.823578   -0.918298
H      -1.088804    1.638463    0.792161
H      -0.619161   -0.593313   -0.255901
H       0.989616   -0.267525   -2.053891
H       2.105459    0.598920   -0.964889
H       1.558366   -2.518967    1.074012
H       3.330902   -1.481443    2.451918
H       0.106911   -0.895199    1.964062
H       0.979299    1.178194    2.385367
