17

O      -0.286131    1.415706    0.383383
C       0.006101    0.068596    0.027399
C       0.880239   -0.656551    1.093597
C       0.130369   -1.873143    1.635050
O      -0.200880   -2.739787    0.555499
C      -1.356217   -2.153664   -0.000972
C      -1.950671   -1.301136    1.079695
O      -1.105467   -1.451020    2.198150
C      -1.322550   -0.639415   -0.132200
H       0.544531    1.902157    0.406251
H       0.527306    0.048782   -0.941244
H       1.837304   -0.980651    0.673939
H       1.076784    0.032423    1.920451
H       0.688578   -2.438056    2.384267
H      -1.882463   -2.807406   -0.682931
H      -2.996695   -1.216105    1.339535
H      -2.005902   -0.196453   -0.849391
