20

C       0.118882    1.587101    0.297851
C      -0.005230    0.089693    0.084114
C      -1.385304   -0.403753   -0.325906
C      -1.855112    0.125606   -1.696317
C      -3.130868   -0.547757   -2.143443
O      -4.158318    0.018183   -2.414203
C       1.190949   -0.647613   -0.472009
C       0.808036   -0.812163    0.981297
H       1.127667    1.852869    0.628199
H      -0.083470    2.148826   -0.620627
H      -0.584701    1.936115    1.063064
H      -1.377904   -1.501031   -0.353312
H      -2.119518   -0.119295    0.439420
H      -2.019568    1.205989   -1.686393
H      -1.080689   -0.098955   -2.444233
H      -3.060185   -1.660905   -2.202572
H       1.016961   -1.485481   -1.139947
H       2.083809   -0.077007   -0.704676
H       1.440691   -0.350513    1.732176
H       0.375631   -1.758391    1.289803
