17

O      -0.212820   -0.059353   -0.233333
C      -0.078031    1.121174   -0.040801
C       1.244951    1.853727   -0.028667
C       1.348328    2.851110   -1.208384
C       2.612665    3.737069   -1.175317
C       3.274900    3.569641   -2.554419
O       4.254618    4.157580   -2.945614
C       2.481757    2.554290   -3.287638
C       1.435881    2.160084   -2.554365
H      -0.964624    1.778421    0.126151
H       1.311656    2.418842    0.910404
H       2.059869    1.124912   -0.061934
H       0.445513    3.478606   -1.191517
H       2.400839    4.792741   -0.987234
H       3.321875    3.412408   -0.406745
H       2.749317    2.214539   -4.279885
H       0.702094    1.419592   -2.856271
