13

N      -0.054544    1.421729    0.027161
C      -0.048024    0.024555    0.023025
C      -1.078187   -0.892241    0.071626
N      -0.663767   -2.216827    0.046756
C       0.637117   -2.090712   -0.017246
N       1.795374   -2.805935   -0.076387
N       2.861151   -1.963568   -0.126798
N       2.444262   -0.748713   -0.102541
N       1.086519   -0.800717   -0.035465
H       0.435805    1.816580    0.823095
H       0.341985    1.821218   -0.817292
H      -2.128082   -0.644319    0.124453
H       1.945140   -3.799914   -0.087117
