18

C       0.048630    1.444239   -0.088263
N       0.000571    0.007669    0.118643
C      -1.366006   -0.554719    0.366976
C      -1.095829   -1.408910    1.624235
C      -0.269041   -0.397565    2.477755
O       0.150086   -0.999106    3.678311
C       0.747223   -0.500714    1.282834
C       0.290764   -1.984220    1.245365
O       0.782655   -3.055467    1.086731
H       1.081610    1.752297   -0.278684
H      -0.541225    1.696666   -0.975376
H      -0.338419    2.044223    0.755321
H      -2.102965    0.234492    0.566647
H      -1.716948   -1.146981   -0.484642
H      -1.906021   -2.003756    2.039508
H      -0.735182    0.582753    2.631841
H       0.892161   -0.496427    4.029676
H       1.786841   -0.181213    1.336065
