19

O      -0.103843    1.434742   -0.050913
C       0.008559    0.053907   -0.071936
C       0.658728   -0.726038   -1.217958
C      -0.403017   -1.859021   -0.991830
C       0.170268   -3.110256   -0.332517
O       1.127486   -2.768882    0.659381
C       0.617428   -1.934685    1.686067
C      -0.211424   -0.766831    1.183182
C      -1.140932   -0.938357    0.005922
H       0.674788    1.795482    0.387312
H       0.484530   -0.207065   -2.163822
H       1.713464   -0.997325   -1.130705
H      -0.978917   -2.113189   -1.883597
H      -0.641095   -3.720678    0.100266
H       0.711296   -3.728727   -1.055804
H      -0.008500   -2.528379    2.376857
H       1.492525   -1.591412    2.249331
H      -0.635616   -0.159122    1.979443
H      -2.208616   -0.765329    0.055905
