21

C       0.114682    1.492931    0.459441
C      -0.026451    0.093720   -0.152229
C      -1.448200   -0.455530   -0.117514
C      -1.926994   -1.081688    1.189650
C      -1.638244   -1.944889   -0.011880
O      -2.736533   -2.539602   -0.642656
C      -3.086644   -1.975179   -1.899505
C      -3.174700   -0.470592   -1.857528
C      -2.437367    0.227488   -0.996494
H       1.158425    1.821343    0.441608
H      -0.471976    2.236321   -0.089544
H      -0.224829    1.504281    1.500320
H       0.328187    0.108038   -1.190833
H       0.629577   -0.600543    0.387472
H      -1.236652   -1.105483    2.027310
H      -2.972701   -0.969487    1.451065
H      -0.751538   -2.578062    0.002520
H      -2.375786   -2.294594   -2.681956
H      -4.057509   -2.411964   -2.155139
H      -3.865647    0.013645   -2.541382
H      -2.517691    1.309646   -0.938662
