18

C      -0.217022    1.627806   -0.032185
C       0.059666    0.126650    0.016664
O      -1.075520   -0.625763   -0.383689
C       1.319887   -0.644644   -0.347546
C       2.681750   -0.132712    0.188868
C       2.634105    1.147546    0.972607
C       2.120081   -0.123913    1.604233
C       0.765791   -0.668650    1.078043
H       0.345580    2.134258   -0.822539
H      -1.283844    1.761420   -0.231645
H      -0.003667    2.123605    0.916958
H      -1.181579   -0.502633   -1.333723
H       1.251034   -1.436034   -1.084035
H       3.617001   -0.555482   -0.156350
H       3.604352    1.443489    1.363889
H       2.013273    1.989437    0.704280
H       2.572891   -0.521545    2.503589
H       0.243951   -1.482195    1.565636
