16

O      -0.044210    1.461503    0.150888
C      -0.073445    0.070825   -0.032511
C      -0.449477   -0.776113    1.149470
O      -0.955490    0.003774    2.210477
C      -2.366077    0.199650    1.993085
C      -2.626048    0.096725    0.467966
O      -2.832091    1.334485   -0.178590
C      -1.396856   -0.681037   -0.020351
H      -0.067500    1.593836    1.111734
H       0.691310   -0.278796   -0.719431
H       0.092895   -1.665590    1.452782
H      -2.920350   -0.577212    2.536996
H      -2.643927    1.181686    2.383213
H      -3.536841   -0.483467    0.291501
H      -1.963751    1.758386   -0.243368
H      -1.527841   -1.496743   -0.720649
