19

C       0.101465    1.507686    0.013190
O       0.044512    0.101538   -0.057803
C      -1.263988   -0.405846    0.052787
C      -1.205426   -1.922517   -0.039219
C      -2.559512   -2.656422    0.030323
C      -2.178492   -3.188271   -1.365668
O      -0.957739   -2.409263   -1.382445
C      -0.122960   -2.467590    0.889211
O      -0.331164   -2.831878    2.017375
H       1.150564    1.796147   -0.081575
H      -0.472913    1.977353   -0.800151
H      -0.287750    1.882509    0.972606
H      -1.716504   -0.129635    1.021518
H      -1.912542   -0.019277   -0.750732
H      -2.636320   -3.385359    0.836934
H      -3.429558   -1.997159    0.050096
H      -1.973260   -4.263546   -1.422821
H      -2.847101   -2.907574   -2.186429
H       0.877192   -2.525339    0.413553
