19

O      -0.034453   -0.104829   -0.164185
C      -0.031560    1.094603   -0.037026
C      -1.321415    1.922844    0.029993
N      -1.642229    2.211857    1.429333
C      -0.753306    3.149826    2.115660
C       0.618225    2.528853    2.405558
N       1.539487    2.682574    1.273069
C       2.365793    1.519199    0.928375
C       1.238038    1.916870    0.057397
H      -1.193295    2.834236   -0.585613
H      -2.127918    1.318254   -0.391801
H      -2.596153    2.548236    1.480159
H      -0.600278    4.095313    1.563898
H      -1.231441    3.398746    3.068282
H       1.082457    3.034416    3.259126
H       0.458830    1.475677    2.688450
H       3.390073    1.734945    0.638016
H       2.234158    0.609646    1.511518
H       1.435622    2.471293   -0.861718
