21

C      -0.091846    1.658305   -0.001674
C      -0.091982    0.127323   -0.006919
C       0.725144   -0.474753    1.136668
O       0.236669   -0.064470    2.397708
C       0.974404   -2.018321    1.027847
N       2.379773   -1.702091    0.697060
C       2.250277   -0.360890    1.028764
N       3.018010    0.610548    1.281690
C       4.454392    0.374939    1.246341
H       0.926570    2.050239   -0.077697
H      -0.677114    2.050612   -0.838487
H      -0.531727    2.036549    0.925310
H      -1.118902   -0.248966    0.084454
H       0.303754   -0.252003   -0.957002
H       0.849009    0.608414    2.719639
H       0.835800   -2.515385    1.992178
H       0.441634   -2.554626    0.237611
H       3.183449   -2.289626    0.867038
H       4.750698   -0.580819    1.707949
H       4.831586    0.373387    0.214572
H       4.968550    1.176810    1.782923
