15

C      -0.029012    1.448057    0.035131
N       0.069146    0.003581    0.023474
C       0.148715   -0.809878   -1.096653
C       0.137011   -2.153221   -0.746666
C       0.037169   -2.132527    0.660852
C      -0.007334   -0.834281    1.101826
N      -0.095068   -0.770406    2.472352
C      -0.098925   -2.029796    2.800719
O      -0.020510   -2.932625    1.769693
H       0.444361    1.849976   -0.863166
H      -1.071731    1.783864    0.067129
H       0.489855    1.841511    0.912142
H       0.210198   -0.362265   -2.076291
H       0.203924   -2.986513   -1.425980
H      -0.158003   -2.451092    3.791346
