18

O       0.006428    1.331899    0.315563
C       0.070465   -0.037434   -0.063092
C      -1.340556   -0.588453    0.027353
C      -1.557896   -2.095661   -0.094222
C      -1.010239   -2.841314    1.055571
N      -2.318621   -2.181676    1.224218
C      -2.052940   -0.718563    1.424466
C      -1.313803   -0.261776    2.658501
O      -0.776491   -0.982397    3.462627
H       0.901070    1.684074    0.339914
H       0.439400   -0.154590   -1.094954
H       0.749728   -0.598191    0.594542
H      -1.977626   -0.027826   -0.660118
H      -1.928082   -2.591146   -0.985602
H      -1.104880   -3.922385    1.022164
H      -0.156654   -2.482402    1.617208
H      -3.007977   -0.182134    1.412406
H      -1.297041    0.844169    2.770341
