20

C      -0.386423    0.960883   -1.665563
C      -0.013206   -0.227089   -0.802797
C       1.414310   -0.603553   -0.467570
C       2.623779    0.160196   -0.967877
C       0.490073   -0.083316    0.619743
C       0.662515    1.281515    1.257878
O      -0.565608    1.871083    1.655504
C       1.594451    1.190583    2.406373
N       2.303313    1.098626    3.314546
H       0.316111    1.792973   -1.578143
H      -0.413601    0.671524   -2.721341
H      -1.375822    1.341154   -1.393093
H      -0.682692   -1.072177   -0.943863
H       1.597924   -1.672955   -0.402577
H       2.442547    1.231742   -1.080784
H       3.469866    0.039636   -0.283481
H       2.932104   -0.218021   -1.948306
H       0.139572   -0.825086    1.334573
H       1.094326    1.990188    0.547360
H      -1.010779    1.258565    2.252441
