18

C      -0.056096    1.424828   -0.112302
N       0.013802    0.002918    0.115121
C      -1.168473   -0.859118   -0.044630
C      -0.614014   -2.305127    0.038146
O      -1.073419   -3.058715   -1.068668
C       0.889508   -2.086224    0.042609
C       1.817715   -3.164763   -0.066076
O       1.476397   -4.331478   -0.241811
C       1.137854   -0.749251    0.078790
H       0.924434    1.873317    0.063775
H      -0.367884    1.660404   -1.140639
H      -0.774339    1.888716    0.573235
H      -1.910973   -0.630524    0.725686
H      -1.626850   -0.705382   -1.030190
H      -0.933032   -2.788202    0.974724
H      -0.530806   -3.861421   -1.062733
H       2.895528   -2.896529   -0.004311
H       2.104098   -0.256145    0.084960
