14

O       0.109504    1.417959   -0.059043
C      -0.036958    0.057169    0.048152
C      -0.423148   -0.750841    1.251503
C      -1.614065   -0.169409    2.054957
O      -2.030535    1.083737    1.465217
C      -2.475209   -0.150438    0.881053
C      -1.347671   -0.738047   -0.025227
C      -1.582382   -1.787457   -0.951236
N      -1.785010   -2.641611   -1.707927
H      -0.594796    1.815676    0.471353
H       0.733041   -0.442151   -0.535543
H       0.155553   -1.595296    1.603844
H      -1.825743   -0.319699    3.105035
H      -3.538603   -0.299650    0.746678
