14

C      -0.011838    1.429229    0.075201
N       0.009638   -0.015628   -0.013549
C      -0.064459   -0.780048   -1.124299
C       0.037169   -2.104253   -0.715392
C       0.174405   -2.008334    0.694888
N       0.158351   -0.749431    1.110282
C       0.005119   -3.266426   -1.516648
C      -0.019829   -4.266382   -2.187727
H       0.975836    1.813614    0.346242
H      -0.306433    1.840272   -0.891561
H      -0.731646    1.737107    0.836340
H      -0.182947   -0.353128   -2.107073
H       0.278194   -2.816503    1.403023
H      -0.042236   -5.146733   -2.780247
