20

C       0.016341    1.574595    0.114236
C      -0.077314    0.050371   -0.075065
C       0.706612   -0.457890   -1.249027
C       0.212713   -0.855237   -2.450994
O       1.211415   -1.244499   -3.290601
C       2.385490   -1.104243   -2.592499
N       3.585573   -1.449871   -3.221210
C       2.139953   -0.630943   -1.339199
C       3.164316   -0.381206   -0.277785
H       1.051606    1.894017    0.268951
H      -0.363361    2.098647   -0.768300
H      -0.567757    1.897655    0.982066
H       0.269199   -0.445649    0.840815
H      -1.129172   -0.233740   -0.195432
H      -0.789365   -0.936168   -2.841191
H       3.486695   -2.298786   -3.768355
H       3.924672   -0.720826   -3.842193
H       3.303024    0.688276   -0.077228
H       2.880839   -0.848685    0.672455
H       4.129370   -0.791197   -0.586383
