21

C      -0.044657    1.496762   -0.118246
C      -0.109860   -0.031482   -0.181649
N      -1.461298   -0.554659    0.030250
C      -2.288726   -0.782072   -1.148382
C      -2.025318   -2.126283   -1.837786
C      -1.865534   -0.769282    1.323126
C      -3.270434   -1.317029    1.543839
O      -1.131100   -0.527741    2.269387
H       0.975765    1.843236   -0.311689
H      -0.703612    1.958808   -0.861218
H      -0.342929    1.841328    0.874752
H       0.241124   -0.390486   -1.154866
H       0.534643   -0.458663    0.588803
H      -3.342055   -0.706999   -0.871311
H      -2.103845    0.036659   -1.854505
H      -0.978068   -2.217712   -2.141299
H      -2.253990   -2.961926   -1.169436
H      -2.646046   -2.223772   -2.734382
H      -3.468244   -2.221225    0.960987
H      -3.363986   -1.544628    2.605181
H      -4.032001   -0.575911    1.278053
