16

C      -0.013835    1.461943    0.004399
N      -0.008929    0.017500    0.002759
C      -0.058626   -0.799227   -1.110339
C      -0.037328   -2.133213   -0.754802
C       0.029633   -2.127166    0.665873
C       0.046028   -0.803096    1.108925
C       0.112100   -0.858036    2.516685
N       0.135302   -2.127931    2.920752
N       0.084750   -2.887428    1.793822
H       0.896871    1.859831    0.466327
H      -0.064028    1.820614   -1.025384
H      -0.879288    1.853734    0.550815
H      -0.106390   -0.356258   -2.094034
H      -0.066412   -2.969716   -1.433717
H       0.143807   -0.066183    3.249182
H       0.093361   -3.886656    1.889835
