20

C       0.204185    1.521909    0.219943
C       0.032423    0.019943    0.188194
N       0.577428   -0.748591   -1.035738
C       2.020898   -1.346487   -0.909441
C       3.092476   -0.922167    0.111629
C       2.186424   -0.489020    1.258056
C       0.931508   -0.921790    1.003155
C       0.892640   -1.916410   -0.167622
C       0.218123   -3.248856   -0.254061
H       1.253403    1.811707    0.122324
H      -0.358955    1.972985   -0.603343
H      -0.181985    1.934328    1.158166
H      -1.031941   -0.240820    0.199894
H       2.308107   -1.718527   -1.889635
H       3.785813   -1.761992    0.268475
H       3.703115   -0.062794   -0.189875
H       2.372688    0.462744    1.747224
H      -0.801217   -3.203896    0.144589
H       0.163515   -3.580738   -1.295207
H       0.767240   -4.002600    0.320752
