14

C       0.090989   -1.190815   -0.020787
C       0.001229    0.010755    0.000356
C      -0.047672    1.423154    0.005465
C      -1.137041    2.209952    0.086430
C      -0.795136    3.681015    0.027374
C       0.727830    3.682617   -0.024669
O       1.350784    3.102093    1.123291
C       1.186837    2.284395   -0.050983
H       0.156754   -2.250544   -0.028742
H      -2.149908    1.845705    0.208480
H      -1.225083    4.160565   -0.861936
H      -1.173006    4.230775    0.898169
H       1.271200    4.499311   -0.491399
H       2.103120    1.935210   -0.515602
