20

C      -0.273437    1.068839   -0.413412
C       0.102333   -0.221454    0.307739
O       0.810136    0.017826    1.517597
C      -1.112056   -1.107503    0.602175
O      -1.709469   -1.481809   -0.626742
C      -2.896740   -2.225721   -0.514200
C      -2.612670   -3.724315   -0.252152
C      -3.845039   -4.502038   -0.188307
N      -4.839435   -5.088968   -0.142089
H       0.620790    1.657794   -0.633284
H      -0.795551    0.848258   -1.347602
H      -0.942813    1.677598    0.209102
H       0.791398   -0.799905   -0.318390
H       0.317981    0.674458    2.022650
H      -0.773046   -1.981202    1.176951
H      -1.837690   -0.556390    1.226192
H      -3.545238   -1.827323    0.279566
H      -3.426511   -2.122889   -1.465446
H      -1.976082   -4.113838   -1.053314
H      -2.066984   -3.852230    0.688486
