13

C      -0.107459    1.537865    0.012177
C       0.113519    0.038739    0.001402
O       1.202500   -0.469791   -0.011916
C      -1.185995   -0.803240    0.008847
C      -0.965459   -2.234249   -0.000909
C      -0.784419   -3.427348   -0.009016
C      -0.585526   -4.778005   -0.018139
N      -0.422705   -5.928095   -0.025844
H       0.855353    2.048782    0.005758
H      -0.694049    1.844906   -0.860992
H      -0.676905    1.834728    0.900092
H      -1.776164   -0.514876    0.889596
H      -1.792140   -0.505462   -0.857811
