19

C       0.366398    1.386563    0.241181
C      -0.235568    0.042927   -0.167599
O      -1.577046    0.163356   -0.622382
C       0.608983   -0.623701   -1.241694
O       1.865069   -1.171188   -0.871416
C       0.839392   -2.086527   -1.326635
C       0.290407   -3.094677   -0.352004
C       1.137124   -2.592747   -2.708984
O       0.786352   -3.664774   -3.128995
H       1.378650    1.251550    0.632946
H       0.427037    2.064918   -0.619609
H      -0.252161    1.858670    1.008955
H      -0.285082   -0.608020    0.708927
H      -1.610550    0.875579   -1.270706
H       0.632237   -0.058988   -2.180758
H       0.213460   -2.678283    0.652401
H      -0.697634   -3.430205   -0.678004
H       0.942438   -3.971717   -0.316213
H       1.731419   -1.877394   -3.320697
