22

C       0.000701    1.599267    0.080067
C       0.003077    0.072497   -0.032719
C      -1.398035   -0.542106    0.056878
C      -1.396548   -2.069619   -0.055881
C      -2.795366   -2.678030    0.033969
C      -2.820368   -4.197958   -0.075765
C      -4.188645   -4.854807    0.008487
O      -1.810467   -4.848005   -0.221621
H       1.014063    2.007282    0.012576
H      -0.595078    2.054774   -0.718982
H      -0.426175    1.925450    1.035212
H       0.467135   -0.225211   -0.982208
H       0.634685   -0.353497    0.757920
H      -1.863772   -0.243646    1.007138
H      -2.031428   -0.115280   -0.734081
H      -0.934573   -2.375167   -1.001786
H      -0.767747   -2.502864    0.730526
H      -3.285688   -2.400311    0.978660
H      -3.452101   -2.272871   -0.749957
H      -4.843338   -4.478579   -0.785704
H      -4.086717   -5.936840   -0.082206
H      -4.672960   -4.609023    0.960311
