12

O      -0.185240    0.024820    0.148932
C      -0.020608    1.215225    0.078375
C       1.280747    1.914091   -0.014394
C       1.297836    3.276850   -0.087658
N       2.424760    4.048627   -0.176899
C       3.532691    3.388392   -0.189203
O       3.680494    2.074761   -0.125565
C       2.542100    1.186728   -0.029462
O       2.776791    0.024470    0.021995
H      -0.881631    1.923075    0.077014
H       0.357219    3.824294   -0.076685
H       4.486711    3.905086   -0.257416
