18

C      -0.025094    1.537437   -0.059619
C       1.440789    1.936811    0.078290
C       2.218158    0.868116    0.241750
C       3.676886    0.497238    0.169190
C       3.585637   -0.983249   -0.191387
C       2.334183   -1.461777   -0.144183
C       1.408162   -0.389359    0.271898
N       0.423335   -0.459930    1.396470
C      -0.009202    0.008238    0.057530
H      -0.663474    1.984689    0.711934
H      -0.424382    1.858355   -1.030980
H       1.765181    2.968715    0.002767
H       4.231293    1.080956   -0.575064
H       4.207764    0.629952    1.123343
H       4.463464   -1.567207   -0.444104
H       2.042317   -2.487853   -0.335339
H       0.131041   -1.433347    1.494723
H      -0.724196   -0.588773   -0.498774
