15

N       0.001465   -1.120721    0.029926
C      -0.013090    0.035474    0.038016
C      -0.013620    1.477634    0.024911
C      -0.840402    2.237701   -1.046785
C      -0.052268    3.540594   -0.842118
O       1.278140    3.136389   -1.286959
C       1.334404    2.392097   -0.089295
C       0.406244    3.333454    0.685115
N      -0.290371    2.201642    1.296224
H      -0.719984    1.861810   -2.063720
H      -1.899438    2.278642   -0.779275
H      -0.399573    4.477194   -1.271894
H       2.295631    1.979373    0.204189
H       0.708552    4.185935    1.288693
H      -1.283489    2.332816    1.486689
