12

O      -0.060225    1.394058    0.011112
C       0.031684    0.032858    0.002793
C       1.185023   -0.671121   -0.008280
O       1.215045   -2.021499   -0.016167
C       0.055499   -2.806663   -0.013651
O       0.183139   -4.002027   -0.020728
C      -1.185560   -2.051112   -0.001464
C      -1.198500   -0.698970    0.006269
H       0.822375    1.779836    0.007697
H       2.178398   -0.236206   -0.011892
H      -2.094516   -2.638726    0.000955
H      -2.127632   -0.138275    0.015259
