21

O      -0.122013    1.530323   -0.260334
C       0.056263    0.151123    0.042676
C      -1.308858   -0.501935   -0.038407
C      -2.024148   -0.767882   -1.404767
C      -1.023919   -1.669296   -2.150273
C      -0.635589   -2.639536   -0.978958
C      -1.509508   -2.039241    0.139304
C      -2.858664   -1.842671   -0.633741
O      -3.986795   -1.418213    0.088681
H       0.737224    1.960443   -0.221971
H       0.767700   -0.314389   -0.653586
H       0.461447    0.015482    1.059495
H      -1.961733    0.060113    0.637828
H      -2.507607    0.031683   -1.965918
H      -1.494777   -2.192834   -2.987130
H      -0.168800   -1.116966   -2.548207
H      -0.906531   -3.678059   -1.190258
H       0.432223   -2.620484   -0.745552
H      -1.482241   -2.515505    1.120370
H      -3.198646   -2.702649   -1.219102
H      -3.786748   -0.590695    0.536916
