20

C      -0.005477    1.531283    0.153542
C      -0.045344    0.011052   -0.001930
N      -1.404302   -0.527632   -0.109858
C      -2.064433   -0.117209   -1.343048
C      -1.433078   -1.973081    0.066570
C      -2.816385   -2.454301    0.557906
C      -2.837514   -3.893826    0.801137
N      -2.831858   -5.034040    0.989271
H       1.017349    1.853355    0.371115
H      -0.323613    2.053866   -0.752776
H      -0.651778    1.848226    0.977374
H       0.578915   -0.288732   -0.866667
H       0.412512   -0.441240    0.884288
H      -1.534451   -0.470994   -2.248115
H      -3.085348   -0.506501   -1.378920
H      -2.135731    0.971131   -1.392905
H      -1.162487   -2.522490   -0.853628
H      -0.693876   -2.246354    0.824615
H      -3.072153   -1.925165    1.481478
H      -3.597388   -2.218269   -0.171893
