19

C      -0.045209    1.457613   -0.002869
C       0.008310   -0.057986   -0.015522
O       0.673667   -0.472163    1.186429
C       0.834332   -1.783022    1.387362
C       1.416573   -2.447088    2.421656
C       1.300578   -3.847717    2.099163
C       1.788299   -4.999880    2.920115
C       0.661224   -3.908977    0.904665
O       0.366109   -2.638852    0.450760
H       0.962642    1.880635    0.027282
H      -0.546893    1.819290   -0.905181
H      -0.596899    1.818532    0.869484
H      -0.996892   -0.494557   -0.045844
H       0.559417   -0.432588   -0.886066
H       1.866599   -2.001864    3.293484
H       1.318568   -5.013147    3.910347
H       1.568271   -5.953934    2.432958
H       2.871329   -4.947308    3.080204
H       0.348769   -4.714291    0.262283
