17

C      -0.077995    1.438984   -0.296540
C      -0.037718   -0.072644   -0.055280
C      -1.389607   -0.636743    0.323779
O      -2.382811   -0.491468   -0.769449
C      -2.465034   -1.850324   -0.929528
N      -3.019379   -2.564511   -1.799329
C      -1.578942   -2.176861    0.255490
O      -0.435499   -2.946795   -0.008302
H       0.908085    1.813546   -0.585198
H      -0.782781    1.684361   -1.096129
H      -0.390979    1.979088    0.603800
H       0.328021   -0.598202   -0.942834
H       0.661036   -0.316297    0.754515
H      -1.791415   -0.167454    1.226808
H      -3.494181   -2.004521   -2.509291
H      -2.137256   -2.574384    1.113078
H      -0.656931   -3.541418   -0.734342
