19

C       0.119904    1.642784   -0.023710
C       0.006897    0.118860    0.078211
N       0.650822   -0.532474   -1.078777
C       1.328880   -1.757066   -0.637396
C       1.473296   -1.533890    0.852832
C       0.738335   -0.499708    1.254689
C       0.577910    0.011547    2.649833
C       0.561511   -2.993040   -0.922255
N      -0.054509   -3.939872   -1.170713
H       1.170302    1.945198   -0.062182
H      -0.369349    1.999095   -0.935348
H      -0.363825    2.132895    0.827496
H      -1.065126   -0.139546    0.160880
H       0.014160   -0.695082   -1.848156
H       2.300365   -1.865725   -1.140391
H       2.076344   -2.182619    1.474698
H       1.142497   -0.592980    3.363650
H       0.917587    1.050073    2.736746
H      -0.476927   -0.000335    2.951554
