25

C       0.041481    1.588465    0.111255
C      -0.044134    0.062104   -0.048589
C      -1.535497   -0.374668    0.006369
C      -2.146357   -0.153594    1.312173
C      -2.630191    0.023768    2.398750
C       0.706205   -0.500559   -1.302314
C       2.150235    0.041922   -1.324760
C       0.791329   -2.038727   -1.215213
C       0.009658   -0.111770   -2.621119
H       1.068118    1.928643    0.262820
H      -0.361699    2.109988   -0.764093
H      -0.542906    1.903651    0.980207
H       0.444639   -0.386707    0.826511
H      -2.105811    0.175407   -0.753005
H      -1.634553   -1.435301   -0.246658
H      -3.068706    0.177769    3.353202
H       2.662369   -0.150041   -0.374954
H       2.726693   -0.447573   -2.116991
H       2.182919    1.118195   -1.513694
H      -0.190666   -2.518949   -1.257146
H       1.377237   -2.435183   -2.051282
H       1.280586   -2.355132   -0.287495
H      -0.083313    0.973207   -2.731215
H       0.589077   -0.476393   -3.476224
H      -0.991937   -0.545845   -2.700283
