23

C      -0.066441    1.656344   -0.006514
C      -0.013900    0.123894   -0.012917
C       0.748666   -0.473021   -1.203243
O       0.134629   -0.075119   -2.438999
C       2.255138   -0.147086   -1.245427
C       2.773630   -1.253216   -2.161784
O       2.040511   -2.409124   -1.784520
C       0.757097   -2.029754   -1.268178
C       0.542414   -2.786157    0.037705
H       0.933779    2.099941    0.039914
H      -0.571923    2.045466   -0.897027
H      -0.626445    2.018213    0.860596
H       0.443537   -0.225093    0.918918
H      -1.037788   -0.267666   -0.030591
H       0.265116    0.872965   -2.543655
H       2.460145    0.860915   -1.617739
H       2.694039   -0.239434   -0.245736
H       2.588183   -0.995516   -3.214752
H       3.838687   -1.470674   -2.037280
H      -0.019320   -2.316707   -1.989480
H       1.270445   -2.488483    0.798794
H      -0.466139   -2.631689    0.432353
H       0.675553   -3.855273   -0.148627
