21

C      -0.063155    1.576237   -0.012948
C       0.056157    0.048524    0.033921
C       0.804425   -0.559916   -1.177840
C       1.508126   -1.821625   -0.635832
C       1.612626   -1.538152    0.847219
C       2.457886   -2.354872    1.715213
O       3.120239   -3.293222    1.319932
C       0.819085   -0.513189    1.225343
C       0.591920    0.029222    2.600979
H       0.926328    2.047083   -0.014935
H      -0.582295    1.888553   -0.924577
H      -0.626002    1.971214    0.838509
H      -0.965635   -0.363980    0.083295
H       0.141137   -0.762488   -2.022705
H       1.556775    0.159696   -1.521678
H       0.913682   -2.729269   -0.804603
H       2.483740   -2.008287   -1.092671
H       2.475727   -2.070155    2.789140
H       1.139830   -0.513230    3.372613
H       0.883183    1.084841    2.656521
H      -0.476025   -0.008482    2.852461
