23

C      -0.310316    1.532840   -0.052160
C       0.012067    0.038169   -0.004038
C       0.824381   -0.476727   -1.240815
C       2.045584   -1.212137   -0.627581
C       1.465581   -1.744455    0.697462
C       0.808593   -0.461992    1.242548
C       1.916780    0.494423    1.732754
C       3.077111    0.561469    0.770600
C       3.144749   -0.216907   -0.309543
H       0.595833    2.139175   -0.151290
H      -0.949227    1.759912   -0.912435
H      -0.842488    1.860856    0.847907
H      -0.943734   -0.499824    0.013331
H       0.221020   -1.163834   -1.844138
H       1.132668    0.342994   -1.896509
H       2.422700   -2.002511   -1.282273
H       0.712599   -2.518894    0.509585
H       2.228302   -2.160708    1.362279
H       0.123735   -0.660479    2.073400
H       1.511925    1.499887    1.903539
H       2.275952    0.160852    2.718014
H       3.871379    1.270423    0.993088
H       3.980425   -0.135837   -0.999994
