16

C       0.051414    1.549533   -0.026226
C       0.070366    0.063208    0.064169
O       0.581826   -0.700924   -1.044586
C       1.224026   -1.648984   -0.150065
C       0.586714   -0.969909    1.048165
O       1.139858   -0.785995    2.306619
C      -0.909018   -0.799701    0.832513
O      -1.567287   -0.185303    1.899458
H       1.060309    1.966413   -0.098861
H      -0.512426    1.857766   -0.913804
H      -0.447315    1.961939    0.853997
H       0.944179   -2.686263   -0.370234
H       2.315212   -1.538755   -0.178099
H       1.080726   -1.620259    2.789912
H      -1.510008   -1.546652    0.314103
H      -0.949329   -0.170023    2.642933
