20

O      -0.175255    1.523045    0.085271
C      -0.005920    0.123523   -0.050181
C      -1.381905   -0.522762    0.062638
C      -1.335261   -2.054537   -0.049301
C      -0.616699   -2.661330    1.148487
O      -0.009540   -3.701591    1.130399
C      -2.741378   -2.646074   -0.188605
C      -3.012910   -4.090733   -0.007857
N      -3.539249   -3.110459    0.961826
H       0.685810    1.942934    0.001430
H       0.443689   -0.137450   -1.022561
H       0.666382   -0.274290    0.729614
H      -1.835616   -0.229679    1.017830
H      -2.024759   -0.113025   -0.723180
H      -0.767661   -2.349507   -0.941889
H      -0.706964   -2.072676    2.092426
H      -3.342326   -2.107421   -0.919514
H      -3.767817   -4.577465   -0.618609
H      -2.184030   -4.725666    0.291868
H      -2.979841   -3.132517    1.811320
