17

O      -0.049826    1.468895   -0.130827
C       0.000457    0.055205   -0.035922
C      -0.005611   -0.629571    1.374848
C      -1.513376   -0.169451    1.516365
O      -1.852409    1.137654    1.831602
C      -1.380035   -0.656274    0.016769
C      -0.588664   -1.824669    0.616301
C      -0.085638   -3.098473    0.128117
O      -1.103261   -3.010774    1.158811
H       0.830617    1.813872    0.051123
H       0.719735   -0.349528   -0.758476
H       0.782432   -0.628631    2.127989
H      -2.120123   -0.822714    2.145752
H      -1.345062    1.709759    1.238557
H      -2.141180   -0.683699   -0.761850
H      -0.432152   -3.497823   -0.823637
H       0.877324   -3.476375    0.467875
