18

C      -0.069243    1.504121    0.142462
C      -0.008638   -0.022319    0.005198
C       0.702516   -0.473321   -1.230422
C       0.433465   -0.093464   -2.720426
O       1.621830    0.725419   -2.790014
C       2.136249   -0.114376   -1.732784
C       2.138990   -1.573361   -2.247916
C       0.852377   -1.557561   -2.994167
N       0.870410   -1.972729   -1.551628
H       0.933210    1.940994    0.182788
H      -0.593472    1.960037   -0.702950
H      -0.596649    1.787149    1.057600
H       0.495029   -0.463644    0.874893
H      -1.021691   -0.444741   -0.004941
H      -0.455062    0.350486   -3.164829
H       2.971154    0.308405   -1.177575
H       2.952838   -2.266985   -2.414189
H       0.579968   -2.237846   -3.790481
