18

O      -0.300530    1.012767    1.113326
C       0.024092    1.286341   -0.012749
C       1.397352    1.760538   -0.428529
C       1.342145    3.082430   -1.193700
O       2.625160    3.321728   -1.739466
C       2.707904    4.524002   -2.441188
C       2.968063    5.802157   -1.684230
C       4.058354    5.154985   -2.516785
H      -0.703452    1.195390   -0.854222
H       2.037744    1.837753    0.452997
H       1.823700    1.004937   -1.103277
H       0.588376    3.027535   -1.997792
H       1.046491    3.905573   -0.526030
H       2.060954    4.573653   -3.318371
H       2.512897    6.721181   -2.036478
H       3.063032    5.722990   -0.606974
H       4.854256    4.651360   -1.980468
H       4.359203    5.623631   -3.446712
