25

C      -0.249166    1.548845    0.206025
C      -0.000357    0.050790   -0.002125
C       0.730299   -0.593606    1.169952
C       0.003349   -0.725554    2.540412
C       0.721794   -2.091125    2.721076
O       0.003334   -3.183938    3.228303
C      -0.253984   -3.091213    4.609971
C       0.989510   -2.139829    1.193329
C      -0.005314   -3.001425    0.417164
H       0.693741    2.093012    0.331996
H      -0.775732    1.988306   -0.646895
H      -0.855534    1.729497    1.100246
H      -0.957649   -0.458338   -0.166035
H       0.585281   -0.097494   -0.919346
H       1.684910   -0.073760    1.317929
H       0.165934    0.051774    3.290722
H      -1.073648   -0.874892    2.408939
H       1.659484   -1.962596    3.285769
H       0.678407   -3.027869    5.193919
H      -0.872433   -2.215208    4.857512
H      -0.792878   -3.995463    4.903745
H       2.007382   -2.435816    0.920603
H      -1.043655   -2.760021    0.661344
H       0.128581   -2.873840   -0.661876
H       0.143189   -4.057685    0.657159
