18

C       0.007176    1.539408   -0.075051
C       0.003587    0.013008    0.093815
O       0.720552   -0.384358    1.262281
C      -1.360061   -0.527197    0.081157
C      -2.490922   -0.942942    0.112313
C      -3.842656   -1.486202    0.133381
C      -3.869688   -3.009586   -0.034820
O      -5.230507   -3.403372    0.004059
H       1.037057    1.905393   -0.054073
H      -0.457410    1.828099   -1.022408
H      -0.552924    2.014819    0.736694
H       0.570185   -0.431152   -0.733857
H       0.174327   -0.156409    2.022768
H      -4.343723   -1.232870    1.075706
H      -4.446157   -1.038347   -0.665622
H      -3.392734   -3.279696   -0.988625
H      -3.285547   -3.476328    0.772121
H      -5.272230   -4.357835   -0.103307
