21

C      -0.006831    1.581950   -0.008807
C       1.279034    0.787237   -0.042006
C       2.213570    0.765205    1.176418
C       2.091749   -0.575373    1.910398
C       2.256236   -0.690323    3.462666
C       0.894102   -1.462174    3.524282
C       0.645733   -0.983644    2.108838
C      -0.367547   -0.638047    1.324060
C      -0.054560    0.067947    0.048907
H      -0.229981    2.124026    0.905121
H      -0.341308    2.074536   -0.916251
H       1.777230    0.732341   -1.004779
H       3.243818    0.967607    0.863795
H       1.935565    1.566088    1.871575
H       2.675058   -1.351728    1.398939
H       3.139413   -1.214184    3.834884
H       2.192742    0.286890    3.949444
H       1.040876   -2.546481    3.589019
H       0.174824   -1.168738    4.294121
H      -1.406452   -0.820949    1.590286
H      -0.403646   -0.419445   -0.858783
