17

N       0.152510    1.495702   -0.038771
C       0.056331    0.034775   -0.017196
C       0.838652   -0.495276   -1.245301
O       0.266464   -0.049157   -2.454540
C       0.744210   -0.493076    1.270602
C       0.113859    0.013926    2.486245
N      -0.392915    0.431443    3.436961
C      -1.327640   -0.467695   -0.104015
C      -2.458294   -0.861519   -0.225453
H      -0.114231    1.814702   -0.966305
H      -0.500891    1.902797    0.624122
H       1.850343   -0.080966   -1.210767
H       0.897536   -1.592075   -1.196903
H      -0.620531   -0.426593   -2.508823
H       0.722313   -1.587503    1.288550
H       1.789032   -0.166668    1.256834
H      -3.463708   -1.197898   -0.299799
