14

N      -0.016274    1.373614    0.146985
C       0.006880    0.006734    0.054167
N      -1.157474   -0.634178    0.042481
C      -1.105127   -1.974187    0.007383
C      -2.386504   -2.738050   -0.005718
O      -3.485955   -2.247148    0.008381
C       0.098687   -2.667699   -0.024825
N       1.278679   -2.025694   -0.024957
C       1.234132   -0.708486    0.015996
H       0.791925    1.889345   -0.159463
H      -0.909481    1.803247   -0.039389
H      -2.241935   -3.841533   -0.031489
H       0.124945   -3.752880   -0.055205
H       2.182622   -0.174209    0.020027
