15

N       0.042152    1.345399   -0.092668
C      -0.019578   -0.027524   -0.034217
N      -1.104754   -0.727162   -0.046378
C      -0.707322   -2.099569   -0.040903
C       0.809639   -2.134446   -0.014246
N       1.173649   -0.745058    0.025253
C       0.034445   -2.643646    1.200443
C       0.052357   -1.921295    2.436107
N       0.080591   -1.328705    3.429645
H       0.757344    1.758253    0.489490
H      -0.862859    1.771462    0.051300
H      -1.334723   -2.805751   -0.572626
H       1.459375   -2.811156   -0.554369
H       1.969035   -0.428172   -0.508171
H       0.013803   -3.723489    1.305198
