16

C      -0.064054    1.543390   -0.073707
C      -0.019135    0.028337   -0.076754
O      -1.235257   -0.521455   -0.568570
C       1.256802   -0.684018   -0.611699
O       1.969940   -0.187521    0.581191
C       0.693882   -0.695826    1.120201
C       0.920602   -1.966716    0.229223
O      -0.063334   -2.881567   -0.093514
H       0.887424    1.952664    0.265613
H      -0.282364    1.917374   -1.078836
H      -0.853869    1.903378    0.598241
H      -1.969102   -0.072592   -0.135461
H       1.751351   -0.573768   -1.577868
H       0.528621   -0.598853    2.194828
H       1.825150   -2.503681    0.518407
H      -0.839649   -2.371993   -0.366827
