16

O      -0.908477    1.479731    0.242932
C       0.109437    1.000440   -0.181087
C       1.415404    1.793969   -0.335627
O       2.385105    1.219719   -0.772091
C       1.384372    3.248358    0.075512
C       2.726615    3.950935   -0.114993
C       2.658387    5.429305    0.313025
C       3.933824    6.121358    0.138816
N       4.948222    6.655564   -0.004234
H       0.207380   -0.057723   -0.501701
H       0.580799    3.737102   -0.492691
H       1.042985    3.291228    1.119108
H       3.500511    3.436364    0.461771
H       3.035121    3.885065   -1.162296
H       1.894630    5.961364   -0.266769
H       2.362383    5.510278    1.365829
