23

C       0.104613    1.555185   -0.038093
C      -0.030855    0.017440    0.043916
C       0.731002   -0.473874    1.193380
C       1.369544   -0.843714    2.143258
C      -1.502585   -0.531460    0.051464
C      -1.455075   -2.069847   -0.014816
C      -2.268557   -0.091819    1.311117
C      -2.227305   -0.003861   -1.201011
O      -3.507462   -0.616731   -1.279337
H       1.161461    1.833068   -0.015978
H      -0.324889    1.946082   -0.963719
H      -0.384315    2.045631    0.807317
H       0.443787   -0.396381   -0.858097
H       1.935249   -1.181673    2.975848
H      -0.947196   -2.478990    0.862037
H      -2.465511   -2.479698   -0.061412
H      -0.913802   -2.408302   -0.906314
H      -2.333751    0.998520    1.387642
H      -3.288726   -0.480891    1.277264
H      -1.779913   -0.465683    2.214744
H      -2.332876    1.088640   -1.144221
H      -1.626403   -0.236396   -2.096820
H      -3.985256   -0.219141   -2.012284
