14

C       0.026319    1.489931   -0.302374
C      -0.041680    0.051407    0.211475
N      -1.368646   -0.532501    0.072519
C      -1.945179   -1.109752   -1.008369
C      -3.217071   -1.417656   -0.589340
N      -3.356279   -1.018892    0.704184
N      -2.237810   -0.481079    1.102309
H       1.033533    1.890673   -0.155174
H      -0.209791    1.542004   -1.369303
H      -0.681984    2.121891    0.239343
H       0.667248   -0.590753   -0.319593
H       0.195677    0.008122    1.276467
H      -1.420975   -1.250584   -1.938702
H      -4.018961   -1.898175   -1.125915
