19

C      -0.089803    1.550366   -0.069808
C       0.010965    0.010479    0.038778
C       0.762955   -0.383851    1.332027
C      -1.404654   -0.614131    0.038419
O      -2.107614   -0.110365    1.161277
C       0.730768   -0.513810   -1.121684
C       1.308074   -0.959195   -2.086157
C       2.031599   -1.463950   -3.222808
O       1.590469   -2.257906   -4.022852
H       0.904486    2.003818   -0.050493
H      -0.583280    1.845067   -1.000332
H      -0.673870    1.933470    0.769408
H       0.195555   -0.037998    2.198419
H       0.877524   -1.469301    1.401904
H       1.757920    0.068052    1.352169
H      -1.909533   -0.354030   -0.903498
H      -1.311802   -1.709354    0.078695
H      -2.988633   -0.494589    1.164299
H       3.060519   -1.060425   -3.319708
