16

C      -0.069566    1.528448    0.006459
C       0.108001    0.043598    0.029792
N      -0.779727   -0.857923    0.793246
C       0.685360   -0.902636    1.026646
C       1.241109   -1.823386   -0.061070
C       0.666351   -0.816685   -1.132704
C      -0.279860   -1.310927   -2.121655
N      -1.024403   -1.692660   -2.919412
H       0.819485    2.028399   -0.392114
H      -0.923731    1.811365   -0.619227
H      -0.248581    1.914309    1.015603
H      -1.194970   -0.302514    1.541114
H       1.099669   -0.709164    2.008325
H       2.330205   -1.872759   -0.099150
H       0.815670   -2.827791   -0.079249
H       1.480218   -0.297659   -1.645991
