22

C       0.087337    1.566419    0.024140
C      -0.000415    0.036782   -0.024877
C      -1.432695   -0.519501   -0.038369
O      -2.138420   -0.141923    1.150807
C      -2.261537   -0.161085   -1.298093
C      -3.250228   -1.342180   -1.428722
N      -2.618516   -2.534582   -0.829856
C      -1.246179   -2.767712   -1.300521
C      -1.484984   -2.042098   -0.027589
H       1.130833    1.894532    0.031935
H      -0.397984    2.030998   -0.840826
H      -0.377984    1.967698    0.931597
H       0.527310   -0.333499   -0.911399
H       0.515015   -0.382422    0.847292
H      -2.222788    0.816869    1.153930
H      -2.775465    0.797080   -1.183415
H      -1.614347   -0.074076   -2.176482
H      -4.158992   -1.140824   -0.853763
H      -3.542650   -1.545951   -2.463393
H      -0.931280   -3.806681   -1.271868
H      -0.878122   -2.215292   -2.161990
H      -1.308965   -2.520519    0.931179
