21

C      -0.468555    1.421910   -0.153694
C       0.338430    0.141772    0.094857
C       0.913224   -0.438755   -1.170450
O      -0.052882   -0.900902   -2.107639
C       0.268717   -2.258581   -2.340416
O       1.676712   -2.371118   -2.242098
C       2.052914   -1.406116   -1.282918
C       2.225370    0.016400   -1.793069
C       2.378013    0.334947   -3.260838
H       0.160602    2.205277   -0.588867
H      -1.290757    1.227967   -0.848125
H      -0.891803    1.806527    0.778920
H       1.162412    0.344401    0.789550
H      -0.298438   -0.613109    0.573440
H      -0.220406   -2.904878   -1.590264
H      -0.045855   -2.537088   -3.350163
H       2.618225   -1.793417   -0.440763
H       2.821982    0.636950   -1.125838
H       3.418129    0.208469   -3.578510
H       1.755654   -0.318041   -3.873861
H       2.085446    1.369923   -3.465191
