18

N      -0.112414    1.288878   -0.020531
C      -0.054255    0.025087   -0.034740
O       1.114106   -0.707155    0.010248
C       0.833809   -2.124990    0.136516
C      -0.588037   -2.294211   -0.414204
C      -1.620618   -3.249351    0.216504
C      -2.939161   -2.414135    0.222221
C      -2.438678   -0.982475    0.265783
C      -1.157123   -0.936573   -0.091500
H       0.825751    1.686420    0.054678
H       1.611827   -2.656182   -0.415258
H       0.891192   -2.404034    1.196832
H      -0.534276   -2.437247   -1.502962
H      -1.720889   -4.199855   -0.313077
H      -1.332958   -3.472492    1.250460
H      -3.533249   -2.596407   -0.685258
H      -3.589819   -2.659112    1.068284
H      -3.041956   -0.137260    0.573668
