19

C       0.047984    1.503049   -0.031835
C       0.009985   -0.011608   -0.027805
C       0.699842   -0.685459   -1.222954
O       0.038443   -1.954320   -1.355326
C      -0.637400   -2.122717   -0.138835
O       0.324385   -2.141471    0.932218
C       0.270574   -0.758583    1.336242
C      -1.226509   -0.590793    1.675486
C      -1.353788   -0.779267    0.146037
H       1.083660    1.862347   -0.020314
H      -0.429007    1.902176   -0.933731
H      -0.456627    1.938888    0.834711
H       0.568227   -0.121085   -2.153280
H       1.773589   -0.832949   -1.050762
H      -1.202165   -3.053338   -0.170962
H       1.094159   -0.529394    2.011981
H      -1.657205   -1.349422    2.332044
H      -1.508761    0.409910    2.005884
H      -2.247730   -0.558834   -0.435611
