19

C      -0.344644    1.440742   -0.069456
C      -0.108958   -0.045624    0.053334
O       0.888978   -0.566601    0.479112
O      -1.184890   -0.732341   -0.402895
C      -1.098887   -2.148775   -0.339464
C      -1.794399   -2.929824    0.723537
C      -3.104103   -2.247773    1.135829
C      -3.583530   -2.274374   -0.350180
C      -2.271469   -2.957282   -0.757972
H       0.521577    1.977994    0.314537
H      -0.514464    1.706953   -1.116677
H      -1.240963    1.727493    0.487576
H      -0.120612   -2.517522   -0.624648
H      -1.267069   -3.681568    1.299146
H      -3.719807   -2.880156    1.777966
H      -3.001816   -1.265296    1.605303
H      -4.450478   -2.922618   -0.490061
H      -3.782038   -1.309434   -0.823311
H      -2.178497   -3.738810   -1.503420
