16

N       0.054199    1.371046    0.069138
C       0.121938   -0.010544   -0.063405
O       1.166559   -0.602904   -0.254326
N      -1.100730   -0.640288    0.070196
C      -1.204679   -2.070873    0.110166
C      -1.749170   -2.763456    1.384754
O      -2.708324   -3.506244    0.607097
C      -2.418431   -2.738091   -0.577007
H       0.899661    1.825852   -0.240944
H      -0.791180    1.832146   -0.232975
H      -1.868123   -0.107820    0.450385
H      -0.242686   -2.463719   -0.214958
H      -1.063265   -3.416012    1.935578
H      -2.233497   -2.072820    2.091945
H      -3.227513   -2.034615   -0.824360
H      -2.218595   -3.372894   -1.447170
