11

N       0.055129    1.414907    0.063327
C      -0.037622    0.052826   -0.037166
N      -1.213414   -0.496522   -0.020525
O      -1.245394   -1.884587   -0.247945
C      -0.118041   -2.621025   -0.438537
O      -0.183565   -3.804277   -0.644006
C       1.141320   -1.853432   -0.357810
N       1.195468   -0.588653   -0.174040
H       0.929403    1.759688    0.426390
H      -0.776530    1.897423    0.366491
H       2.061223   -2.425995   -0.460860
