22

C       0.793081    1.268493   -0.637330
C       0.014338    0.044717   -0.138395
C       0.686809   -0.607437    1.052815
C       0.640331   -2.028716    1.455472
N       1.954360   -1.373286    1.011840
C       1.915100   -2.233012   -0.224769
C       0.676639   -3.022010    0.298312
C       1.016131   -4.438095    0.751801
O      -0.507720   -3.013861   -0.483417
H       1.791973    0.988147   -0.987489
H       0.269718    1.757147   -1.464806
H       0.923288    2.008347    0.160138
H      -0.988740    0.352102    0.183447
H      -0.144457   -0.673076   -0.944383
H       0.723861    0.058735    1.916008
H       0.475994   -2.326298    2.488016
H       1.774806   -1.683997   -1.159159
H       2.828816   -2.828256   -0.291550
H       1.893293   -4.445164    1.404763
H       0.171700   -4.873859    1.295388
H       1.238056   -5.077192   -0.112339
H      -0.456434   -3.741221   -1.113219
