21

C      -0.128571    1.558450   -0.095250
C       0.009975    0.034638   -0.045802
C       1.027641   -0.474979   -1.132358
C       2.338585   -0.631645   -0.369437
C       2.073449   -0.741807    0.926548
C       2.570315   -0.393553    2.300716
O       3.764841    0.343567    2.349520
C       1.180229    0.341189    2.484665
C       0.630060   -0.501992    1.277519
H       0.846555    2.047111    0.006812
H      -0.557640    1.874282   -1.051960
H      -0.778312    1.930119    0.703842
H      -0.978060   -0.407493   -0.211770
H       0.696298   -1.423313   -1.578296
H       1.119516    0.236884   -1.961583
H       3.314122   -0.567159   -0.835840
H       2.614986   -1.274425    2.959697
H       4.036479    0.419045    3.269410
H       0.681032    0.228774    3.450917
H       1.294099    1.399450    2.242609
H       0.097904   -1.387489    1.643953
