17

N       0.497042    0.247797   -0.823026
C      -0.155292    0.160938    0.365700
O       0.033611    0.924707    1.294296
C      -1.197383   -0.962835    0.454514
C      -0.780039   -2.317849   -0.133014
C      -1.825060   -3.443056    0.098122
O      -2.079493   -3.975872   -1.228146
C      -1.376099   -3.193287   -2.069082
N      -0.642661   -2.267980   -1.608801
H       1.193643    0.966838   -0.926869
H       0.341881   -0.436286   -1.551405
H      -1.428715   -1.073611    1.516920
H      -2.113142   -0.625977   -0.048141
H       0.193716   -2.598921    0.285238
H      -1.465170   -4.259115    0.727559
H      -2.772704   -3.069484    0.498567
H      -1.500117   -3.433702   -3.119266
