12

C      -0.018770    1.484210    0.002211
C       0.016195   -0.062791   -0.019819
C       0.764347   -0.553272    1.210946
O       1.809478   -1.145270    1.179993
C      -1.412834   -0.585156   -0.015562
O      -1.914409   -1.200120   -0.917768
H       0.997420    1.886840   -0.004749
H      -0.548351    1.864344   -0.875200
H      -0.527960    1.858860    0.896746
H       0.524202   -0.434841   -0.911912
H       0.273941   -0.296734    2.179054
H      -1.992507   -0.329656    0.902174
