22

C       0.394523    1.677706   -1.132985
C       0.150649    0.208713   -0.775800
C       0.931700   -0.759626   -1.677359
O       2.338744   -0.527389   -1.610102
C       0.610715   -2.217394   -1.394100
C       1.017201   -2.855836   -0.088371
C      -0.161839   -3.067777    0.880122
N       0.006919   -2.825528   -2.342543
O      -0.258603   -4.170615   -2.027357
H       1.459560    1.919435   -1.085857
H       0.052087    1.893795   -2.150612
H      -0.141129    2.343295   -0.449742
H       0.429332    0.028374    0.272778
H      -0.916456   -0.029926   -0.854659
H       0.660661   -0.574247   -2.721149
H       2.593915   -0.491260   -0.681783
H       1.472789   -3.825658   -0.311410
H       1.788211   -2.244978    0.393418
H      -0.635231   -2.119066    1.149953
H      -0.917413   -3.708942    0.422185
H       0.184243   -3.545175    1.801931
H      -0.667478   -4.489342   -2.838743
