16

O       0.909893    1.099684    1.279441
C       0.567371    1.747900    0.325713
C       1.098288    1.542633   -1.089762
N       1.190769    2.799442   -1.796719
C       2.281883    3.616387   -1.512360
C       3.123849    3.593804   -0.422290
N       3.990885    4.656380   -0.635647
C       3.645525    5.235547   -1.810149
N       2.616270    4.634569   -2.369375
H      -0.190629    2.560272    0.397596
H       2.046582    0.985560   -1.029031
H       0.366307    0.906583   -1.603566
H       1.002144    2.759423   -2.787368
H       3.187745    2.965024    0.447945
H       4.741727    4.934970   -0.027760
H       4.172145    6.086456   -2.215097
