23

C      -0.149395    1.535644    0.256014
C      -0.070218    0.009423    0.070762
C       0.514565   -0.637973    1.341829
C      -1.497999   -0.527489   -0.163210
C       0.779042   -0.420588   -1.132442
C       1.105482    0.443020   -2.315126
C       2.231663   -0.027869   -1.402632
C       2.984265    0.895813   -0.604446
C       3.673467    1.640516    0.044063
H       0.837648    1.987014    0.376082
H      -0.648175    2.016247   -0.591939
H      -0.735405    1.766783    1.152015
H      -0.118520   -0.429199    2.211328
H       0.582683   -1.726286    1.233009
H       1.517815   -0.255719    1.549843
H      -1.926723   -0.122237   -1.086075
H      -1.505292   -1.620420   -0.240387
H      -2.157248   -0.247550    0.665466
H       0.604983   -1.465694   -1.381509
H       1.056063    0.020504   -3.312715
H       0.859163    1.496457   -2.260615
H       2.840574   -0.836119   -1.799445
H       4.268210    2.304419    0.620645
