17

N       0.149288   -1.204204    0.244997
C       0.068729   -0.061666    0.097811
C      -0.092042    1.398173   -0.063486
C      -0.902008    1.946286    1.131206
C      -1.294599    3.409689    0.945311
C      -0.113170    4.362656    1.043363
O       0.819677    4.319752   -0.044105
C       1.504899    3.194538   -0.359710
N       1.212736    1.967037   -0.347914
H      -0.709439    1.539131   -0.965189
H      -1.797602    1.326139    1.239828
H      -0.314477    1.821419    2.048391
H      -1.807484    3.554391   -0.013996
H      -2.004942    3.695725    1.729937
H      -0.455899    5.399836    1.053231
H       0.437781    4.176769    1.975431
H       2.488124    3.479102   -0.736789
