18

C      -0.120243    1.646691    0.045531
C       0.060186    0.135813    0.085882
C      -1.120012   -0.628185   -0.458153
O      -2.129793   -0.137843   -0.893641
C       1.311479   -0.696756   -0.209722
C       2.632164   -0.162100    0.413016
N       2.373752    1.105856    1.138506
C       2.034055   -0.197544    1.760266
C       0.696795   -0.733179    1.174861
H       0.646227    2.126668   -0.562286
H      -1.102978    1.857618   -0.385146
H      -0.065824    2.084481    1.041860
H      -0.993723   -1.735663   -0.431341
H       1.308917   -1.473109   -0.965666
H       3.623442   -0.431943    0.074661
H       3.264619    1.397779    1.541687
H       2.453558   -0.501268    2.709845
H       0.149846   -1.541791    1.645155
