15

C      -0.142261    1.411317   -0.048940
C       0.042127   -0.085258    0.022755
O       1.062289   -0.656271    0.307957
O      -1.114601   -0.716622   -0.297053
C      -1.083873   -2.132571   -0.259766
C      -1.786721   -2.815852    0.873799
C      -2.392224   -2.802350   -0.517733
H       0.791762    1.904258    0.217383
H      -0.444384    1.703975   -1.058539
H      -0.938751    1.724938    0.631779
H      -0.161525   -2.549378   -0.643641
H      -1.363160   -3.736371    1.258976
H      -2.250343   -2.179170    1.618525
H      -3.248757   -2.157463   -0.677352
H      -2.394889   -3.715462   -1.101901
