11

C      -0.021000    1.525201    0.020297
C       0.001196    0.029302    0.000521
C      -0.062589   -0.819154   -1.059723
O      -0.013158   -2.099612   -0.659812
N       0.087990   -2.131628    0.725611
C       0.095686   -0.876735    1.099215
H       0.890427    1.934257    0.469402
H      -0.102918    1.929453   -0.991878
H      -0.868129    1.906392    0.600610
H      -0.142672   -0.662145   -2.124559
H       0.168821   -0.646463    2.153595
