19

C      -0.149696    1.506979    0.091860
C       0.157664    0.049398   -0.000435
O      -0.704724   -0.879590    0.705888
C       0.708488   -0.910978    0.975159
C       1.315673   -1.781290   -0.145415
O       0.864380   -3.104045   -0.226788
C       0.738293   -0.745277   -1.156581
C       0.137691   -1.035096   -2.495606
C       1.417196   -0.234571   -2.390592
H       0.719285    2.103467   -0.202951
H      -0.982542    1.774067   -0.568493
H      -0.429258    1.773285    1.114255
H       1.021431   -0.785025    2.006089
H       2.408848   -1.806601   -0.138451
H      -0.094670   -3.056843   -0.116435
H       0.204553   -2.060212   -2.845746
H      -0.771429   -0.517172   -2.783500
H       1.368259    0.829370   -2.602000
H       2.348189   -0.704478   -2.692195
