15

N      -0.190423    1.308401    0.209055
C      -0.064604   -0.050555    0.061511
C      -1.112446   -0.865299   -0.411805
N      -0.956522   -2.170158   -0.485879
C       0.232300   -2.652605   -0.086812
C       0.411902   -4.155086   -0.135799
O      -0.549470   -4.782705   -0.945876
N       1.242375   -1.915295    0.362792
N       1.098585   -0.598930    0.433642
H       0.683136    1.792858    0.356868
H      -0.843040    1.785631   -0.392010
H      -2.065559   -0.442192   -0.724742
H       1.412938   -4.380388   -0.520123
H       0.379384   -4.537326    0.899447
H      -1.303597   -4.178746   -0.985939
