16

C      -0.041656    1.446135   -0.086183
O       1.272750    2.005166    0.029086
C       2.124984    0.875212   -0.164530
C       3.126615    0.302894    0.864443
C       2.035188    0.067435    1.941187
N       2.276669   -1.403292    2.116801
C       2.504535   -1.176221    0.660697
C       1.324564   -0.158114    0.545833
O      -0.011972    0.027291    0.257728
H      -0.697404    1.979547    0.608148
H      -0.416853    1.522021   -1.115571
H       2.368045    0.726749   -1.223406
H       4.180558    0.522926    1.028469
H       1.732322    0.727926    2.751007
H       3.172721   -1.554705    2.588383
H       2.826383   -1.948851   -0.037304
