16

C      -0.044285    1.385161    0.275679
C      -0.034723   -0.048450    0.021598
C      -0.023297   -1.233810   -0.188279
C      -0.037680   -2.672795   -0.441057
C      -1.394129   -3.313416   -0.185862
C      -1.470445   -4.716873    0.285570
N      -1.836004   -3.604118    1.182619
H       0.667394    1.655678    1.063615
H       0.225445    1.951951   -0.622383
H      -1.035709    1.724474    0.595586
H       0.259903   -2.868798   -1.480528
H       0.715474   -3.170639    0.186226
H      -2.190167   -2.933620   -0.822633
H      -2.296753   -5.355068   -0.014318
H      -0.535030   -5.243983    0.459534
H      -1.077657   -3.419343    1.835781
