18

O      -0.035102    1.444297    0.026382
C      -0.007594    0.029699    0.064918
C       0.443101   -0.598633    1.413356
C      -0.742600   -0.330888    2.361117
C      -1.357355   -1.349453    1.373597
O      -0.027489   -1.969528    1.248012
C      -1.432983   -0.556589    0.077159
C      -2.611518    0.141235   -0.470814
N      -2.114274   -1.108774   -1.088775
H       0.870693    1.761018   -0.052021
H       0.587241   -0.383870   -0.761390
H       1.490839   -0.510572    1.704409
H      -0.579940   -0.759968    3.349888
H      -1.158819    0.677118    2.409813
H      -2.163852   -2.040769    1.611675
H      -3.578614    0.053662    0.017806
H      -2.436258    1.086305   -0.975986
H      -1.591965   -0.892669   -1.935223
