21

C       0.070155    1.321935    0.637180
C       0.332174   -0.148363    0.389600
C       0.454998   -0.749237   -0.975587
C       0.308428    0.047966   -2.254115
N       1.623204   -0.662491   -0.082845
C       2.716192    0.250759   -0.369771
C       3.877959   -0.563554   -0.975814
C       5.045517    0.264519   -1.264119
N       5.957570    0.939186   -1.484569
H       0.516486    1.636788    1.586829
H       0.463880    1.972995   -0.145503
H      -1.007982    1.500515    0.708305
H      -0.100265   -0.783780    1.163069
H       0.108239   -1.776713   -1.085955
H       0.548093    1.106965   -2.144357
H       0.946224   -0.360105   -3.046542
H      -0.726854   -0.017521   -2.604863
H       2.470948    1.076353   -1.051286
H       3.049872    0.700687    0.571156
H       4.157267   -1.364140   -0.283872
H       3.548285   -1.046122   -1.902463
