22

C      -0.064643    1.408736   -0.495697
C       0.053243    0.054973    0.204448
O       0.666647    0.171779    1.486630
C      -1.295378   -0.629978    0.314355
N      -1.780634   -1.352598   -0.873004
C      -1.489211   -2.102352    0.367461
C      -0.376040   -3.122110    0.318741
C      -0.836748   -4.430410   -0.314563
O       0.256854   -5.335091   -0.289940
H       0.914603    1.890220   -0.562752
H      -0.469648    1.285298   -1.504510
H      -0.737317    2.076560    0.058727
H       0.726169   -0.584036   -0.373604
H       0.143461    0.791948    2.006405
H      -2.029147   -0.038999    0.867990
H      -2.780913   -1.220222   -0.991581
H      -2.355454   -2.426610    0.945936
H       0.471316   -2.741146   -0.256787
H      -0.013985   -3.322876    1.333838
H      -1.698646   -4.833428    0.244537
H      -1.175509   -4.233421   -1.343240
H      -0.010520   -6.141817   -0.739402
