14

O      -0.224593    0.189895    0.775771
C       0.027089    1.027458   -0.059269
C       1.218597    1.838491   -0.061423
C       2.206716    2.532792   -0.098241
C       3.401233    3.325960   -0.084605
N       3.807920    3.979379   -1.334914
C       3.379830    4.836105   -0.225770
C       2.090199    5.562840   -0.435572
O       1.817253    6.591747    0.125296
H      -0.660736    1.233153   -0.903788
H       4.183068    2.955059    0.574919
H       4.821360    3.981502   -1.416588
H       4.116453    5.379221    0.361069
H       1.407767    5.073505   -1.161169
