16

O       0.010318    1.430141    0.112502
C      -0.021503    0.011524    0.104134
C      -1.431323   -0.510364    0.070174
N      -2.393465   -0.196921   -1.043230
C      -3.146601   -1.067711   -0.086921
C      -1.912176   -2.009392    0.144702
C      -2.094319   -1.871880    1.651458
O      -1.967759   -2.526052    2.641787
C      -2.515378   -0.471023    1.228938
H      -0.181640    1.731080   -0.781337
H       0.539880   -0.400994   -0.746508
H       0.468338   -0.323877    1.024759
H      -2.719545    0.769519   -0.949307
H      -4.179148   -1.380464   -0.234567
H      -1.589805   -2.823946   -0.498442
H      -2.846974    0.405077    1.781727
