12

F      -0.056041    0.065439    0.003924
C      -0.025713    1.385960    0.010663
N      -1.183875    2.004604    0.029493
C      -1.128244    3.344425    0.035882
C      -2.474248    4.023017    0.057621
O      -2.631791    5.213434    0.066111
N      -0.029548    4.096186    0.025257
C       1.128001    3.430596    0.006181
C       1.200158    2.042888   -0.002262
H      -3.313433    3.297653    0.065046
H       2.034971    4.029763   -0.002761
H       2.136397    1.501000   -0.017722
