19

O       0.279145    1.560017    0.496913
C       0.241922    0.156720    0.655308
C      -1.103570   -0.421806    0.220114
C      -2.368407    0.256832    0.802966
C      -2.673261    0.631646   -0.657362
O      -1.420294    0.067361   -1.116435
C      -1.102959   -1.931689    0.308810
C      -1.599142   -2.784844   -0.776481
O      -0.195588   -2.622009   -0.549085
H       0.072740    1.717596   -0.432827
H       1.034247   -0.341060    0.077631
H       0.410792   -0.053834    1.717410
H      -3.082695   -0.409154    1.289773
H      -2.142635    1.106578    1.446953
H      -3.532146    0.117916   -1.105098
H      -2.738779    1.701384   -0.881320
H      -1.136008   -2.314301    1.332087
H      -1.997418   -3.771792   -0.545547
H      -1.971943   -2.313114   -1.681670
