16

C      -0.051900    1.544793    0.083347
C      -0.011393    0.052712    0.036440
C       0.000503   -0.749618   -1.077831
O       0.023610   -2.066890   -0.718825
C       0.036590   -2.103756    0.642869
C       0.012530   -0.839720    1.159672
N      -0.068855   -0.438043    2.499693
C      -0.011939   -0.431981   -2.446615
C      -0.022520   -0.135548   -3.615103
H       0.847666    1.962602    0.554112
H      -0.120580    1.961029   -0.924362
H      -0.912463    1.900148    0.662062
H       0.051456   -3.084202    1.089011
H       0.201320   -1.164650    3.149667
H       0.470682    0.396979    2.690300
H      -0.032850    0.120271   -4.645423
