17

O       0.033889    1.443377   -0.017344
C       0.062563    0.033198   -0.016929
C       0.721334   -0.603523    1.253116
C      -0.218090   -1.735133    1.644177
C      -1.695584   -1.372846    1.840119
O      -1.977648   -0.107124    1.230542
C      -1.342850   -0.573527   -0.011617
C      -1.229671   -2.007631    0.562705
O      -1.404911   -3.218776   -0.060476
H      -0.566995    1.690534    0.698212
H       0.599667   -0.262692   -0.924743
H       1.725882   -0.978218    1.039493
H       0.815900    0.156316    2.034953
H       0.126920   -2.582739    2.226688
H      -2.311052   -1.691037    2.672854
H      -1.966401   -0.369159   -0.883833
H      -2.331372   -3.303419   -0.313928
