17

C      -0.069007    1.554056   -0.001905
C       0.078349    0.032910   -0.002699
C       0.745070   -0.511201   -1.282211
C       1.031537   -1.985000   -1.170173
C       1.289201   -2.515028    0.025788
N       1.274251   -1.740767    1.191341
C       0.782193   -0.454272    1.268668
O       0.861414    0.192150    2.293927
H       0.908051    2.039602   -0.094707
H      -0.691324    1.878384   -0.841480
H      -0.521165    1.898063    0.929601
H      -0.923645   -0.421402    0.055829
H       0.096769   -0.300631   -2.139399
H       1.679982    0.040723   -1.471303
H       1.056643   -2.608604   -2.054909
H       1.529410   -3.560650    0.178599
H       1.656844   -2.107716    2.049529
