16

C       0.007984    1.583858    0.037252
C      -0.012952    0.055559    0.000103
C      -1.435620   -0.485857   -0.049731
O      -2.392143    0.247411   -0.110937
N      -1.623903   -1.904427   -0.008753
C      -2.981622   -2.369146    0.043841
O      -3.309092   -3.517788    0.014483
C      -0.533506   -2.810130   -0.015048
O      -0.617480   -3.996307    0.114649
H       1.040937    1.939908    0.065060
H      -0.483239    2.004174   -0.842577
H      -0.514784    1.962059    0.918443
H       0.537789   -0.310647   -0.875350
H       0.500950   -0.360633    0.874636
H      -3.669223   -1.516729    0.108448
H       0.427714   -2.295083   -0.160545
