19

C      -0.054130    1.360445    0.264468
O      -0.040295    0.018066   -0.198934
C      -1.255602   -0.646102   -0.044555
C      -1.350328   -1.978812   -0.769477
C      -0.403101   -2.978985   -0.174494
C      -1.698414   -2.697982    0.538410
C      -1.578711   -1.397131    1.333567
C      -0.552749   -1.347460    2.440819
O      -0.252168   -0.346796    3.043824
H       0.938124    1.773024    0.069219
H      -0.800537    1.957078   -0.281968
H      -0.263828    1.412733    1.338388
H      -2.094962    0.016455   -0.295929
H      -1.778634   -2.110427   -1.754903
H      -0.356836   -3.930489   -0.693295
H       0.547104   -2.650757    0.236573
H      -2.447327   -3.463079    0.697157
H      -2.526989   -1.031722    1.738603
H      -0.076264   -2.324183    2.685696
