21

O      -0.713366    0.883071    0.827906
C       0.004848    1.042671   -0.125072
C       1.306240    1.809319   -0.117631
C       1.304264    2.950547   -1.151635
C       2.636074    3.701791   -1.234933
C       3.846071    2.851018   -1.716152
C       4.670725    3.835554   -2.510885
C       4.000263    4.956897   -2.767846
C       2.604869    4.925724   -2.193006
H      -0.266950    0.618436   -1.121613
H       1.485630    2.184404    0.894529
H       2.107229    1.097985   -0.365339
H       1.055797    2.545915   -2.142861
H       0.504045    3.657739   -0.898992
H       2.879764    4.077804   -0.233292
H       4.400576    2.401566   -0.884609
H       3.523359    2.014364   -2.355809
H       5.675849    3.612867   -2.851921
H       4.373760    5.791114   -3.351591
H       1.860184    4.791569   -2.992599
H       2.329210    5.850480   -1.673218
