18

O       0.036019    1.295476    0.394379
C      -0.162330    0.088291   -0.312555
C      -1.407376   -0.620087    0.162292
C      -1.583528   -2.112137    0.108343
N      -1.265058   -1.437162    1.350952
C      -2.022936   -1.324808    2.495329
O      -2.247595   -0.253962    3.028362
C      -2.485831   -2.624883    3.142051
O      -3.123818   -2.367790    4.357129
H      -0.039842    1.097659    1.335611
H      -0.262742    0.360473   -1.368765
H       0.697250   -0.594343   -0.218814
H      -2.315779   -0.021304    0.113916
H      -2.593166   -2.493431   -0.024866
H      -0.797083   -2.739505   -0.302987
H      -3.160619   -3.144462    2.441316
H      -1.610550   -3.279173    3.274700
H      -3.102568   -1.401809    4.452245
