20

O       0.245195    1.432197   -0.321957
C       0.057915    0.027478   -0.265627
C      -1.323895   -0.370044    0.262623
C      -1.488164   -1.889763    0.261309
C      -2.063482   -2.815410    1.308641
C      -3.430882   -2.375114    1.903846
N      -3.817916   -1.056576    1.336407
C      -4.026378   -2.305725    0.558131
C      -2.683811   -2.743664   -0.091346
H       0.098568    1.778887    0.564060
H       0.185716   -0.328014   -1.294973
H       0.843826   -0.456636    0.339773
H      -1.452900    0.026708    1.274438
H      -2.090818    0.108145   -0.350738
H      -0.604309   -2.378642   -0.155313
H      -1.489480   -3.625893    1.740987
H      -3.846229   -2.727897    2.838651
H      -4.720109   -0.815129    1.747317
H      -5.009993   -2.591438    0.209430
H      -2.647625   -3.491323   -0.874225
