13

O      -0.183731    1.345509   -0.237459
C      -0.051443   -0.020061    0.001454
C      -0.405049   -0.583875    1.354821
C      -1.317365   -0.796425    0.164846
C       1.095511   -0.632421   -0.765291
F       2.248910   -0.008277   -0.448600
F       1.248046   -1.935723   -0.484616
F       0.936360   -0.515825   -2.087238
H       0.601701    1.783309    0.112059
H       0.156444   -1.430802    1.729888
H      -0.713026    0.141886    2.098230
H      -2.229843   -0.214610    0.115733
H      -1.372818   -1.787466   -0.269270
