20

O       0.353935    1.288632   -0.043561
C       0.052789   -0.091641    0.111591
C      -1.448205   -0.373831    0.136279
N      -2.099774    0.021706   -1.099633
C      -2.488284    1.446176   -1.277730
C      -3.843504    0.970793   -1.797322
C      -5.119649    1.654306   -1.974209
O      -4.318678    1.252981   -3.098191
C      -3.492852   -0.438208   -1.319417
H       0.218293    1.509899   -0.969546
H       0.521044   -0.689797   -0.682786
H       0.493508   -0.396726    1.067229
H      -1.591433   -1.454206    0.264834
H      -1.897629    0.125814    1.016653
H      -2.546487    2.009836   -0.335009
H      -1.880039    2.009047   -1.994879
H      -6.052345    1.105872   -1.846034
H      -5.187543    2.729113   -1.809306
H      -3.597798   -1.241704   -2.056408
H      -4.019307   -0.722073   -0.394631
