16

C      -0.050446    1.520288    0.000739
C      -0.003349    0.017060   -0.002777
N      -0.027020   -0.634627   -1.169062
C       0.013206   -1.964065   -1.185013
C       0.083100   -2.761523   -0.033250
N       0.187190   -4.147637   -0.114358
C       0.105673   -2.092921    1.195714
C       0.061821   -0.713087    1.184768
F       0.080105   -0.052148    2.350213
H       0.836080    1.949218    0.481059
H      -0.102247    1.876927   -1.028838
H      -0.920984    1.894574    0.550937
H      -0.008486   -2.438088   -2.165084
H      -0.156067   -4.546722   -0.976027
H      -0.154917   -4.652710    0.689973
H       0.160514   -2.624756    2.139438
