13

O       0.077365   -0.157905    0.149516
C       0.046372    1.000255   -0.158713
C       1.275780    1.919609   -0.089156
C       1.313560    2.887120   -1.167690
C       1.309583    3.674841   -2.090014
C       1.309525    4.555887   -3.114395
C       1.310833    5.350981   -4.037512
C       1.310532    6.233075   -5.063141
C       1.310486    7.021939   -5.980096
H      -0.883825    1.500952   -0.500949
H       1.224273    2.438908    0.880840
H       2.171735    1.289919   -0.065337
H       1.310302    7.714135   -6.785458
