16

C      -0.024469   -1.171234    0.070490
C      -0.023205    0.031861    0.061838
C      -0.025211    1.460353    0.019554
N      -0.632084    2.345977    1.087689
C      -0.085982    3.310586    0.067539
C       1.201767    2.441068   -0.051368
C       1.643929    2.483667   -1.503412
O       0.369811    2.472316   -2.187718
C      -0.539113    2.418740   -1.123937
H      -0.026173   -2.233180    0.083505
H      -1.654248    2.307116    1.011382
H      -0.156078    4.390939    0.186475
H       1.932231    2.433024    0.754696
H       2.197753    3.392809   -1.764544
H       2.231796    1.608867   -1.803524
H      -1.573528    2.381599   -1.465728
