20

C       0.019257    1.501161    0.041081
C      -0.078965   -0.010086   -0.007609
C      -0.869977   -0.739697    1.021533
N       0.592411   -0.703049    1.105831
C       1.334011   -1.932211    0.757792
C       2.201394   -1.714894   -0.473805
O       1.828622   -2.437482   -1.654692
C       1.554699   -1.034455   -1.606078
C       0.099207   -0.630063   -1.400080
H       0.960726    1.847667   -0.401100
H      -0.803312    1.963675   -0.516526
H      -0.015908    1.854924    1.074155
H      -1.400655   -0.199629    1.802720
H      -1.337966   -1.678827    0.726742
H       1.949305   -2.203423    1.621070
H       0.665243   -2.778618    0.550242
H       3.275620   -1.622059   -0.327770
H       2.158250   -0.438748   -2.288588
H      -0.515041   -1.527286   -1.514486
H      -0.220430    0.080092   -2.167612
