20

C      -0.037080    1.596249   -0.033269
C      -0.055460    0.057095   -0.009797
C      -1.499145   -0.476892    0.013937
C       0.701495   -0.503383   -1.178813
C       1.811101   -1.287837   -1.214770
C       2.708421   -1.898819   -0.202224
O       2.108136   -1.527138   -2.538596
C       1.150821   -0.866433   -3.225190
N       0.292837   -0.244127   -2.491561
H       0.986469    1.981272    0.007807
H      -0.499175    1.966614   -0.953058
H      -0.590887    2.002804    0.819250
H       0.449397   -0.278109    0.905109
H      -2.022857   -0.193846   -0.903853
H      -1.516991   -1.568536    0.088608
H      -2.049745   -0.065789    0.866356
H       2.721668   -2.991605   -0.283869
H       3.740587   -1.548519   -0.316042
H       2.370220   -1.637634    0.802716
H       1.198200   -0.923956   -4.301643
