19

C      -0.016660    1.609787    0.086239
C       0.005913    0.098504   -0.034536
C       1.231287   -0.599479   -0.644403
O       2.033094   -0.212221    0.572570
C       0.735793   -0.760935    1.064587
C       0.131870   -1.320075    2.305562
C      -0.528894   -2.426688    1.920395
C      -0.363565   -2.772173    0.424407
C       0.886568   -1.930861    0.107892
H       0.955802    1.983129    0.412283
H      -0.264076    2.073025   -0.875564
H      -0.776335    1.931036    0.807162
H      -0.961544   -0.303066   -0.351317
H       1.731212   -0.439989   -1.601341
H       0.101376   -0.867265    3.288123
H      -1.179295   -3.005634    2.568158
H      -0.226337   -3.844181    0.253260
H      -1.263917   -2.476379   -0.127082
H       1.799386   -2.491428    0.319841
