22

C       0.603539    0.382629   -0.234929
O      -0.576546    0.060028    0.486793
C      -1.296349   -0.972506   -0.010209
N      -2.383139   -1.291933    0.533000
C      -3.163252   -2.423163    0.051829
C      -2.827168   -3.055471   -1.294844
C      -3.123609   -2.200524   -2.514777
C      -1.668834   -4.029868   -1.352578
C      -3.087015   -4.539006   -1.418942
H       1.089048    1.191338    0.312940
H       1.290202   -0.471491   -0.292639
H       0.374382    0.727390   -1.251235
H      -0.834574   -1.461616   -0.876843
H      -3.117452   -3.195605    0.832027
H      -4.212044   -2.096000    0.031721
H      -2.578589   -1.251407   -2.497534
H      -2.853006   -2.723034   -3.437867
H      -4.192015   -1.960908   -2.568740
H      -1.070225   -4.064905   -2.257320
H      -1.106510   -4.213541   -0.442761
H      -3.481596   -5.067960   -0.557448
H      -3.451684   -4.909938   -2.371074
