22

C      -0.079001    1.534450    0.123459
C      -0.066049    0.003984    0.001336
C      -1.499593   -0.541249   -0.074444
C       0.740402   -0.485952   -1.215736
C       2.245625   -0.116387   -1.235848
C       3.029352   -0.719794   -0.052191
C       2.840244   -0.532758   -2.505993
C       3.320199   -0.896848   -3.546779
H       0.922811    1.949983    0.269420
H      -0.502352    1.994282   -0.777857
H      -0.690372    1.851361    0.974814
H       0.392794   -0.405445    0.911257
H      -2.016566   -0.162037   -0.964132
H      -1.508857   -1.635006   -0.126136
H      -2.083654   -0.240771    0.801642
H       0.660710   -1.578187   -1.284309
H       0.278407   -0.089115   -2.128614
H       2.333341    0.976655   -1.176777
H       4.090998   -0.470576   -0.126050
H       2.655689   -0.337973    0.901853
H       2.938145   -1.810563   -0.046777
H       3.747925   -1.205974   -4.467988
