15

C      -0.073136    1.437155   -0.309285
N       0.057473    0.006576   -0.058826
C       1.390613   -0.547613   -0.074221
C       0.638166   -0.430239    1.227697
C       1.084153    0.505556    2.212798
C       1.424127    1.274891    3.083663
C       1.845566    2.214768    4.085542
O       2.011146    1.947065    5.254625
H       0.764069    2.035030    0.079401
H      -0.139070    1.587860   -1.390621
H      -0.998639    1.798399    0.147657
H       1.503804   -1.530760   -0.522725
H       2.232578    0.128996   -0.211332
H       0.172498   -1.326939    1.628727
H       2.014840    3.240364    3.697592
