20

N      -0.013965   -1.172439   -0.286924
C      -0.032913   -0.020053   -0.163825
C      -0.013588    1.402588   -0.008719
C      -1.181142    2.066288   -0.013071
C      -1.340105    3.556083    0.131165
C      -0.727982    4.159346    1.412316
C       0.804252    4.231168    1.425302
C       1.538796    2.883696    1.419476
C       1.356420    2.047263    0.139770
H      -2.090417    1.484402   -0.135291
H      -0.892364    4.055746   -0.741314
H      -2.406875    3.796024    0.099521
H      -1.122104    5.176079    1.525264
H      -1.082174    3.591253    2.281514
H       1.139789    4.822301    0.560977
H       1.117296    4.792520    2.313632
H       2.610878    3.077075    1.541663
H       1.231134    2.286351    2.286781
H       2.114799    1.260802    0.114444
H       1.546912    2.683101   -0.736503
