18

C      -0.063995    1.567052   -0.012062
C       0.013328    0.057888    0.009934
O      -1.149496   -0.588116   -0.421063
C       1.304526   -0.655181   -0.256485
O       2.431665    0.116495   -0.505922
C       0.698752   -0.669591    1.172470
C       1.384066    0.110690    2.284499
C       0.117349   -1.918767    1.590525
N      -0.308746   -2.927957    1.963359
H       0.882325    2.034250    0.260959
H      -0.313874    1.901551   -1.025598
H      -0.851008    1.916773    0.662080
H      -1.243144   -0.438197   -1.368916
H       1.228866   -1.592484   -0.805466
H       3.211978   -0.387108   -0.248333
H       2.032831    0.883273    1.869445
H       0.651680    0.583107    2.945128
H       1.999196   -0.559776    2.891165
