17

N       0.086825    1.327051    0.257512
C      -0.005753   -0.008730    0.007262
C      -1.110588   -0.810365   -0.021581
C      -0.729317   -2.245413   -0.321422
C       0.801214   -2.264092   -0.093071
C       1.252637   -0.797631   -0.274630
C      -2.474277   -0.384317    0.155995
O      -3.450217   -1.111947    0.093076
H       0.937321    1.802414    0.007381
H      -0.744143    1.895192    0.242245
H      -1.260139   -2.956405    0.318173
H      -0.987611   -2.513041   -1.354957
H       1.015176   -2.579699    0.932807
H       1.327979   -2.949461   -0.761328
H       1.584405   -0.594396   -1.303336
H       2.078936   -0.509406    0.385283
H      -2.612121    0.705131    0.370475
