15

C      -0.073761    1.556739   -0.043399
C      -0.035871    0.020946   -0.022627
O       0.529328   -0.513815   -1.214751
C       0.648973   -0.481092    1.171522
C       1.250288   -0.884304    2.145722
C       1.919207   -1.332743    3.230688
C       2.524045   -1.734988    4.208989
C       3.195316   -2.182254    5.294982
C       3.796052   -2.581620    6.266021
H       0.941760    1.965327   -0.046215
H      -0.591636    1.889765   -0.946355
H      -0.595522    1.946468    0.835112
H      -1.066189   -0.356207   -0.015812
H       1.468106   -0.294326   -1.217897
H       4.322164   -2.934285    7.118351
