19

C       0.021850    1.488861    0.069008
C      -0.014877   -0.004497   -0.012842
C      -0.061701   -0.764559   -1.113684
C      -0.086608   -2.244100   -0.799245
C       0.021993   -2.284033    0.726896
C       1.266854   -1.738635    1.429444
C       2.559332   -1.482181    0.755429
O       3.628756   -1.762418    1.247354
C       0.018442   -0.864150    1.216071
H       0.939251    1.836560    0.560360
H      -0.030367    1.947236   -0.921835
H      -0.814956    1.872683    0.666051
H      -0.052123   -0.383859   -2.129284
H      -1.025448   -2.710126   -1.127437
H       0.717308   -2.796325   -1.301679
H      -0.499853   -3.066646    1.264194
H       1.402528   -2.111278    2.440086
H       2.499741   -1.002543   -0.242486
H      -0.503157   -0.542885    2.111986
