20

C       0.135852    1.626768   -0.059028
C      -0.102999    0.134591   -0.151205
C      -1.545358   -0.339382   -0.122096
C      -2.213782   -0.107729    1.244052
N      -3.569047   -0.634015    1.307614
C      -4.648043    0.090480    0.913038
O      -4.604670    1.232911    0.505308
C       0.917775   -0.720034   -0.776602
O       0.787478   -0.670065    0.646333
H       1.206738    1.842970   -0.071044
H      -0.337079    2.145952   -0.899195
H      -0.281145    2.039962    0.864539
H      -2.125760    0.180446   -0.892427
H      -1.573798   -1.409722   -0.353296
H      -1.617316   -0.580311    2.029583
H      -2.279739    0.961194    1.459128
H      -3.710165   -1.594214    1.577013
H      -5.592087   -0.481290    1.016254
H       0.627004   -1.661559   -1.241700
H       1.825604   -0.270199   -1.177664
