20

C      -0.034659    1.560063    0.015237
C       0.024238    0.034158   -0.012508
C       0.853315   -0.561602   -1.179799
C       1.366987   -1.882346   -0.622225
C       2.585366   -1.870476    0.252549
C       3.427836   -0.714470    0.344718
C       4.151582    0.243142    0.438902
N       1.216375   -1.911575    0.841784
C       0.660388   -0.599177    1.248135
H       0.972491    1.985256    0.088780
H      -0.502457    1.957500   -0.891575
H      -0.615250    1.920574    0.871128
H      -0.997552   -0.356875   -0.097954
H       0.250032   -0.713842   -2.078239
H       1.680903    0.104703   -1.446530
H       1.128845   -2.804716   -1.146060
H       3.114318   -2.811422    0.389829
H       4.799093    1.081092    0.518802
H       1.443460    0.045787    1.663270
H      -0.079490   -0.772635    2.034685
