16

C       0.094093    1.452781    0.070251
O      -0.061628    0.032674   -0.009739
C       0.566984   -0.532711   -1.085010
C       0.013798   -0.938227   -2.266433
N      -1.260414   -0.823250   -2.771617
O       0.942710   -1.497245   -3.045213
N       2.197787   -1.482287   -2.361342
C       1.938569   -0.900751   -1.210696
N       2.925736   -0.643611   -0.274917
H       1.152372    1.729826    0.142308
H      -0.343227    1.946869   -0.805972
H      -0.431093    1.774933    0.972327
H      -1.962043   -0.734066   -2.049483
H      -1.495122   -1.535398   -3.449959
H       3.766711   -1.183795   -0.430877
H       2.596382   -0.727682    0.677425
