15

O       0.032446    1.368520    0.088081
C       0.019898   -0.016327    0.068236
C       0.831049   -0.745109    1.163808
O       1.012840   -2.085273    0.619422
C       0.362419   -2.107373   -0.636266
O      -1.042173   -2.051142   -0.481419
C      -1.360002   -0.708620   -0.009968
C       0.658115   -0.699416   -1.144515
O       1.177665   -0.196297   -2.099192
H       0.472375    1.656712   -0.725800
H       1.804687   -0.267720    1.315400
H       0.303724   -0.813951    2.120815
H       0.647686   -2.993075   -1.196194
H      -1.866332   -0.777780    0.958269
H      -2.012860   -0.204246   -0.729831
