21

O       0.087659    1.395346   -0.319623
C       0.060103   -0.002136   -0.025733
C       0.701772   -0.733185   -1.225331
C      -0.092307   -2.039733   -1.360540
C      -1.534853   -1.597297   -1.057190
C      -1.389403   -0.610779    0.120593
C      -1.440641   -1.268895    1.528155
C      -0.096999   -0.959330    2.138551
C       0.707347   -0.304908    1.303661
H      -0.188775    1.861991    0.476664
H       0.555907   -0.104593   -2.110853
H       1.777580   -0.882079   -1.097689
H       0.018194   -2.509227   -2.342034
H       0.246626   -2.766840   -0.612135
H      -1.943191   -1.074662   -1.930144
H      -2.209420   -2.430034   -0.835091
H      -2.123735    0.195500    0.052939
H      -2.266837   -0.890185    2.143293
H      -1.596106   -2.353917    1.457070
H       0.166433   -1.266730    3.145795
H       1.726000    0.006258    1.512273
