19

O      -0.125249    1.493957   -0.012263
C      -0.061642    0.087862    0.010543
C       0.129442   -0.653217    1.352790
C      -1.013965    0.020016    2.190677
C      -2.203250    0.092197    1.135729
C      -1.457499   -0.636296    0.030471
C      -1.604481   -1.608656   -1.140097
O      -0.514962   -2.409191   -0.572248
C      -0.725124   -1.785419    0.734004
H       0.771453    1.836602   -0.070660
H       0.578408   -0.302944   -0.783151
H       1.091664   -0.776449    1.854522
H      -1.280860   -0.574544    3.068820
H      -0.710650    1.013696    2.522530
H      -3.090869   -0.446314    1.476782
H      -2.475937    1.121461    0.899025
H      -2.540787   -2.181627   -1.156613
H      -1.366270   -1.248581   -2.146089
H      -1.227905   -2.476100    1.418548
