19

C       0.075224    1.730438    0.127474
C      -0.003111    0.208235    0.114733
C       0.763474   -0.435268   -1.100650
N       1.885090   -0.708186   -0.151307
C       1.028724   -0.543709    0.933273
N       0.940799   -1.067569    2.080990
C      -0.386481   -0.751771    2.643688
C      -1.474872   -0.998094    1.586966
O      -1.323934   -0.199827    0.403006
H       1.081952    2.072006   -0.128494
H      -0.633299    2.135616   -0.602150
H      -0.190496    2.123970    1.112153
H       0.262372   -1.339098   -1.460586
H       1.029039    0.219931   -1.933768
H       2.470168   -1.531580   -0.225423
H      -0.571785   -1.406940    3.500393
H      -0.440105    0.282518    3.011708
H      -1.459957   -2.064449    1.317319
H      -2.467085   -0.759081    1.982860
