18

C       0.204928    1.597876    0.047319
C       0.044978    0.112469    0.121177
C      -0.844518   -0.616116    1.085896
C       0.628079   -0.940037    1.044091
C       1.038948   -1.705444   -0.218198
C      -0.004396   -2.043878   -1.226511
C      -1.346949   -2.531719   -1.069576
C      -2.445940   -3.022930   -1.078026
N       0.503246   -0.639474   -1.131791
H       1.195149    1.866696   -0.333398
H      -0.542104    2.032738   -0.627368
H       0.075114    2.050826    1.034904
H      -1.114685    0.000648    1.939342
H      -1.607161   -1.323404    0.796944
H       1.287565   -0.825792    1.894153
H       2.051373   -2.079048   -0.348024
H       0.446247   -2.474208   -2.122024
H      -3.423296   -3.437168   -1.046117
