19

C       0.176117    1.497646    0.229075
C       0.029374   -0.012775    0.064913
C       0.651329   -0.600039   -1.220395
C       1.280957   -1.908690   -0.752754
C       2.560533   -1.815634    0.058282
C       1.226604   -1.882584    0.747082
O       0.689998   -0.652535    1.176640
C      -1.456702   -0.376436    0.194632
O      -2.185287   -0.684038   -0.711686
H       1.237256    1.760292    0.259421
H      -0.297998    2.021951   -0.605919
H      -0.286115    1.836925    1.161315
H      -0.133007   -0.769030   -1.961494
H       1.387478    0.087677   -1.648302
H       1.079523   -2.815722   -1.309241
H       3.196554   -2.693966    0.094562
H       3.086115   -0.866457    0.086336
H       0.942489   -2.731041    1.360543
H      -1.810224   -0.337629    1.249494
