14

O       0.011652    1.412514    0.006652
C      -0.006042    0.000194    0.002219
C      -1.433789   -0.482327    0.013101
C      -2.527865    0.380299    0.024127
N      -3.785549   -0.078939    0.033481
C      -3.950789   -1.395893    0.031813
C      -2.838405   -2.239708    0.020627
F      -3.024946   -3.554310    0.019306
N      -1.601241   -1.813324    0.011414
H       0.926984    1.704473   -0.000054
H       0.491494   -0.418035   -0.887106
H       0.506944   -0.423875    0.879898
H      -2.383739    1.453075    0.025423
H      -4.958747   -1.798741    0.039280
