25

C      -0.470374    1.440191    0.433630
C      -0.082387   -0.023457    0.191063
C       0.918275   -0.570724    1.215258
C       2.258997    0.155930    1.174835
O       0.348947   -0.510106    2.557688
C       0.404089   -1.945360    2.723585
C      -0.961227   -2.542329    3.016601
C       1.044986   -2.126008    1.319690
C       0.384134   -3.036617    0.292016
H       0.365521    2.123915    0.258757
H      -1.283758    1.738905   -0.234470
H      -0.808948    1.573378    1.465017
H      -0.989882   -0.634177    0.229176
H       0.335096   -0.144979   -0.816944
H       2.140005    1.220333    1.394957
H       2.941268   -0.264429    1.919191
H       2.724088    0.059379    0.186956
H       1.089921   -2.206710    3.541945
H      -1.684789   -2.307137    2.231456
H      -0.896752   -3.631377    3.118269
H      -1.343750   -2.136281    3.958467
H       2.096714   -2.414935    1.406291
H      -0.681989   -2.836273    0.162244
H       0.863181   -2.929047   -0.687066
H       0.487172   -4.085537    0.590630
