17

O       0.352258    1.423155   -0.147990
C       0.111085    0.045757   -0.066653
C       0.052472   -0.663713    1.298262
C      -1.443534   -0.237034    1.561371
C      -1.878209   -1.688723    1.842714
C      -0.836621   -1.813406    0.715441
C      -1.345095   -0.481857    0.011453
C      -2.451834   -0.413346   -0.976631
O      -3.610158   -0.226301   -0.688365
H      -0.163949    1.867715    0.533665
H       0.748810   -0.422102   -0.823244
H       0.829330   -0.778274    2.055358
H      -1.794353    0.677367    2.041106
H      -1.589765   -2.106631    2.811957
H      -2.910941   -1.945313    1.596333
H      -0.475719   -2.696321    0.186474
H      -2.140370   -0.562095   -2.036191
