19

C       0.151481    1.117327    0.273671
O      -0.443947   -0.013557   -0.335116
C       0.357606   -0.573655   -1.326788
C       1.425742   -1.567625   -1.024135
C       1.020917   -2.401001    0.200910
C      -0.226956   -2.838817   -0.599203
O      -1.028411   -3.716542   -0.445434
C       0.100398   -1.979973   -1.791761
C      -0.199001   -2.348173   -3.217122
H       1.106347    0.864066    0.755923
H       0.334588    1.918266   -0.458518
H      -0.548727    1.480209    1.028786
H       0.584150    0.114653   -2.145592
H       2.423889   -1.512753   -1.440357
H       1.670081   -3.260852    0.387670
H       0.851917   -1.859736    1.134153
H      -1.271612   -2.256465   -3.418325
H       0.330705   -1.695715   -3.917854
H       0.089645   -3.382928   -3.426137
