18

C       0.007400    1.532051    0.018939
C       0.031567    0.035574    0.012574
C       0.017244   -0.768847   -1.093717
O      -0.078409   -0.487850   -2.428429
N       0.048805   -2.091168   -0.684649
C       0.072530   -2.120034    0.683086
O       0.091558   -3.343604    1.280746
C       0.077088   -0.835737    1.167156
C       0.116367   -0.410612    2.603123
H       0.931821    1.964512    0.423772
H      -0.123921    1.917457   -0.996502
H      -0.816945    1.923579    0.627579
H       0.764816   -0.143783   -2.742524
H      -0.024627   -2.892155   -1.286910
H       0.026471   -3.212251    2.231522
H       0.998498    0.200953    2.831156
H      -0.763344    0.181304    2.885915
H       0.148929   -1.270485    3.283593
