18

C       0.095711    1.622326   -0.091951
C       0.095775    0.108134    0.037433
N       0.693725   -0.660858   -1.081558
C      -0.189868   -1.258075   -2.060551
C       1.436563   -1.579421   -0.180825
C       2.806656   -1.891694   -0.526146
C       3.950687   -2.146337   -0.792008
C       1.124232   -0.561486    0.958151
O       1.542712   -0.367123    2.054636
H       1.094651    1.984243   -0.347475
H      -0.599366    1.945527   -0.873292
H      -0.215606    2.080237    0.851805
H      -0.913096   -0.256509    0.309665
H      -0.720577   -0.472582   -2.607245
H       0.396637   -1.831521   -2.784531
H      -0.941848   -1.934041   -1.610350
H       0.876295   -2.509938    0.032182
H       4.962454   -2.366125   -1.028427
