19

C       0.006347    1.580903    0.235583
C      -0.024575    0.070512    0.285267
C      -1.189639   -0.700628   -0.160332
O      -0.021116   -0.604533   -0.977322
C       1.390903    2.103278   -0.025715
C       2.395736    1.734076   -1.151629
C       3.119570    2.575722   -0.078522
C       1.927602    3.559545   -0.043316
O       2.451603    1.771033    0.971676
H      -0.665874    1.935573   -0.553745
H      -0.351740    1.988684    1.189437
H       0.638003   -0.376644    1.025895
H      -1.385627   -1.684009    0.264614
H      -2.067708   -0.176416   -0.536924
H       2.677360    0.682160   -1.193334
H       2.241323    2.175708   -2.139378
H       4.183337    2.774691    0.047949
H       1.732446    4.169789   -0.929171
H       1.806665    4.108116    0.892022
