14

N       0.039304    1.355189   -0.107966
C      -0.015209   -0.002700   -0.037317
C      -1.208254   -0.697238   -0.018766
C      -1.219088   -2.110845    0.007382
O      -2.112696   -2.908445    0.019957
O       0.127402   -2.689698    0.021925
C       1.198071   -1.906486    0.014902
N       2.355735   -2.603173    0.076748
N       1.212724   -0.605258   -0.019173
H       0.929886    1.781291    0.087210
H      -0.786614    1.893477    0.088723
H      -2.165712   -0.195009   -0.035121
H       2.328449   -3.595166   -0.083829
H       3.209216   -2.100114   -0.093402
