19

C      -0.048855    1.569298    0.051568
C      -0.026710    0.066459    0.052408
C       0.915017   -0.743605   -0.945285
C       1.971854   -0.844135    0.184929
C       0.740264   -0.877719    1.098894
C      -0.275092   -1.981352    0.567157
C       0.260427   -2.143584   -0.877328
C      -1.235063   -0.803490    0.352834
O      -2.390125   -0.582703    0.585579
H       0.959323    1.992307    0.116699
H      -0.506861    1.948466   -0.868608
H      -0.636222    1.949778    0.892887
H       1.161247   -0.338093   -1.926759
H       2.658263   -1.696848    0.173580
H       2.539584    0.080075    0.318045
H       0.748219   -0.678153    2.168735
H      -0.551053   -2.861281    1.142901
H      -0.542710   -2.301043   -1.603533
H       0.993540   -2.947554   -0.988973
