18

C       0.111750    1.356836   -0.113816
O       0.096496   -0.053307   -0.056375
C       0.658565   -0.592344    1.058541
C       1.242539    0.033205    2.133474
N       1.651890   -0.981662    2.997731
C       1.327137   -2.188514    2.463099
O       1.651097   -3.300235    3.174391
C       0.701037   -2.012125    1.249667
C       0.169926   -3.053899    0.315967
H       1.140050    1.745146   -0.097929
H      -0.368769    1.642976   -1.051245
H      -0.441315    1.795972    0.728614
H       1.405217    1.068321    2.371808
H       2.121986   -0.860463    3.876157
H       1.389911   -4.070890    2.660997
H       0.229541   -4.058710    0.752450
H      -0.882751   -2.876330    0.068806
H       0.719377   -3.082664   -0.632780
