20

C      -0.115948    1.498675    0.022940
C       0.019088   -0.018201   -0.031133
C       0.890225   -0.587057   -1.190177
C       2.128368   -0.452843   -0.266084
C       1.116876   -0.626284    0.906014
C       0.833140   -2.092027    1.068165
N       0.826150   -2.668690    2.194536
O       0.580130   -2.772429   -0.093296
C       0.568073   -2.066527   -1.350771
H       0.849051    2.007661   -0.064127
H      -0.754821    1.858710   -0.790903
H      -0.571493    1.812323    0.967909
H      -0.972064   -0.475286    0.066657
H       0.881437   -0.084344   -2.161361
H       2.923404   -1.196663   -0.364464
H       2.566091    0.545571   -0.286904
H       1.314299   -0.172904    1.875941
H       0.608210   -3.661038    2.078732
H      -0.428704   -2.205186   -1.787357
H       1.299252   -2.562146   -2.000624
