13

O      -0.033288   -0.026709   -0.433710
C      -0.002549    1.113026   -0.044289
C       1.242996    1.917612    0.042862
C       1.176545    3.411169   -0.126343
C       1.516698    2.867038    1.234528
C       0.547245    3.020252    2.349439
O       0.871532    3.111110    3.506232
H      -0.934782    1.644891    0.251113
H       2.119272    1.397219   -0.327826
H       1.958911    3.899061   -0.694732
H       0.189052    3.847949   -0.247526
H       2.551954    2.898097    1.556022
H      -0.522558    3.074035    2.046399
