20

C       0.082866    1.553565    0.191213
C       0.191106    0.040030    0.021403
C       0.822341   -0.378416   -1.297827
O       1.308367    0.408416   -2.073248
C       0.803081   -1.889544   -1.592871
N       1.557922   -2.276786   -2.753606
C       3.010003   -2.216008   -2.696617
C       0.933343   -2.610976   -3.921339
O       1.485292   -2.910791   -4.956766
H       1.066332    2.023206    0.116261
H      -0.546172    1.990215   -0.588888
H      -0.349979    1.802558    1.163700
H       0.794406   -0.404338    0.826341
H      -0.791135   -0.445382    0.105309
H       1.155029   -2.429614   -0.701720
H      -0.245548   -2.184033   -1.729776
H       3.386788   -2.847637   -1.882995
H       3.390996   -2.584390   -3.648943
H       3.350061   -1.187979   -2.541684
H      -0.169875   -2.592051   -3.812006
