14

N      -0.004290    1.364688    0.009897
C       1.167868    2.039411    0.002026
C       2.366180    1.350384   -0.013466
N       2.449801    0.000192   -0.021570
C       1.311649   -0.658181   -0.013943
C       0.997024   -2.045751   -0.018221
N      -0.316305   -2.226423   -0.006444
C      -0.952736   -0.996392    0.006435
C      -0.015443    0.000190    0.002642
H      -0.874040    1.879653    0.021206
H       1.109318    3.119321    0.008424
H       3.296846    1.905481   -0.019609
H       1.694753   -2.871209   -0.029445
H      -2.030861   -0.931580    0.017335
