19

C      -0.203793    1.464708    0.445422
C       0.035193    0.030445    0.016057
C       1.401149   -0.353289   -0.486365
C       0.933765   -0.825240    0.872230
C      -1.209409   -0.617237   -0.639486
C      -1.601037    0.100965   -1.861372
C      -1.915982    0.700523   -2.853309
C      -1.056474   -2.048524   -0.922264
C      -0.938666   -3.222341   -1.148974
H       0.699714    1.886262    0.895023
H      -0.484565    2.092592   -0.405802
H      -1.006663    1.527505    1.190294
H       1.464291   -1.095997   -1.273763
H       2.156873    0.423102   -0.536816
H       1.362334   -0.365181    1.756338
H       0.698229   -1.877530    0.978986
H      -2.034228   -0.514326    0.083200
H      -2.197432    1.222430   -3.734294
H      -0.840483   -4.259436   -1.355892
