19

O       0.158494   -0.437850    0.339113
C      -0.038715    0.758728    0.339524
N       0.889260    1.709187    0.045095
C       2.269555    1.403961   -0.287600
C       2.660513    1.682513   -1.760209
C       4.167845    1.997896   -1.676065
N       4.453487    2.531557   -0.323903
C       3.548157    3.614256    0.079739
C       3.284950    2.213398    0.511140
H      -1.020393    1.209549    0.587317
H       0.611937    2.677631    0.089993
H       2.392681    0.342338   -0.059720
H       2.440001    0.832507   -2.409044
H       2.088951    2.533467   -2.143942
H       4.761309    1.084587   -1.788392
H       4.504586    2.706920   -2.438425
H       3.975366    4.320708    0.785036
H       2.903709    4.067376   -0.670763
H       3.478031    1.915702    1.537623
