18

C      -0.144664    1.495755   -0.014435
C      -0.045222    0.013136   -0.030809
C      -0.006012   -1.057709   -1.074559
C       1.267856   -1.590299   -0.450215
N       0.911839   -0.857383    0.829910
C      -0.304191   -1.630225    1.283228
C      -1.067703   -1.108247    0.070507
C      -2.463728   -1.067119   -0.181028
C      -3.653439   -1.034014   -0.366511
H       0.787314    1.960594   -0.353675
H      -0.953044    1.822796   -0.676111
H      -0.359853    1.865060    0.993822
H      -0.326073   -1.004506   -2.107755
H       1.410452   -2.669829   -0.332017
H       2.166305   -1.145104   -0.886064
H      -0.146252   -2.708214    1.397796
H      -0.683213   -1.209777    2.217554
H      -4.701273   -1.007722   -0.534466
