20

C      -0.081676    0.708322   -2.117112
C       0.075833   -0.397259   -1.097718
C       1.343864   -0.621760   -0.311465
C       2.586927    0.223842   -0.484757
C       0.122145   -0.049931    0.379888
N      -0.044063    1.305623    0.945695
C      -0.806530    0.753336    2.113884
C      -0.694543   -0.649534    1.480114
O      -1.095911   -1.746487    1.745070
H       0.298660    1.661678   -1.743030
H       0.439103    0.467216   -3.050128
H      -1.140140    0.857122   -2.351913
H      -0.488473   -1.301970   -1.311789
H       1.543609   -1.659005   -0.051189
H       2.352672    1.265937   -0.716961
H       3.198355    0.212058    0.424307
H       3.205350   -0.162957   -1.301670
H       0.841279    1.706232    1.240859
H      -0.306699    0.838246    3.085444
H      -1.822783    1.150731    2.199246
