23

C      -0.072026    1.540878   -0.002864
C      -0.064840    0.020202    0.056823
C      -1.322899   -0.564980   -0.557492
O      -1.370204   -0.164491   -1.925234
C       1.236735   -0.718121   -0.165014
C       0.634291   -0.683021    1.222164
C       1.310296    0.150476    2.301228
C       0.083301   -1.979392    1.786404
O       1.175872   -2.725476    2.318382
H       0.893148    1.975437    0.261341
H      -0.319140    1.860753   -1.018125
H      -0.825945    1.960996    0.674586
H      -1.329770   -1.659780   -0.487364
H      -2.207540   -0.192100   -0.014413
H      -2.219274   -0.437347   -2.284644
H       1.203554   -1.655713   -0.710898
H       2.132968   -0.134480   -0.350493
H       1.871294    0.991633    1.891419
H       0.576113    0.550911    3.011480
H       2.007119   -0.479326    2.859734
H      -0.653206   -1.755383    2.576302
H      -0.429436   -2.565458    1.013630
H       0.816883   -3.491217    2.775890
