23

C      -0.549786    0.842048   -1.474753
C       0.329776   -0.232251   -0.852263
C       1.850825   -0.261512   -1.199602
C       2.200321   -0.517482    0.306075
C       2.441817   -1.999458    0.611157
C       3.301595    0.354766    0.901198
C       0.743659   -0.113120    0.618619
C       0.243613    0.806525    1.642973
O      -0.010559   -0.604881    1.714150
H      -0.124538    1.840043   -1.321320
H      -0.655256    0.686538   -2.553846
H      -1.555647    0.833400   -1.040445
H      -0.116917   -1.219218   -1.017182
H       2.178674   -1.024982   -1.909031
H       2.208087    0.714226   -1.542907
H       3.415020   -2.318485    0.221958
H       2.425996   -2.179609    1.690520
H       1.673225   -2.635562    0.161117
H       3.124267    1.416406    0.700837
H       3.370165    0.222209    1.987221
H       4.277511    0.092026    0.476767
H       0.918221    1.197395    2.403625
H      -0.629025    1.426198    1.439313
