22

C      -0.248292    1.527228    0.001791
C       0.070803    0.026962    0.039791
C       0.714682   -0.520030   -1.241247
C       2.143887    0.000351   -1.437504
C       0.655264   -2.025241   -1.493419
C      -0.642727   -2.372278   -2.151476
C      -1.450908   -1.104616   -2.361612
C      -0.071863   -0.457284   -2.584775
N       0.506559   -1.859858   -2.978652
H       0.653532    2.135816   -0.113236
H      -0.920054    1.770679   -0.828975
H      -0.740855    1.843248    0.926394
H       0.744302   -0.181563    0.881797
H      -0.848448   -0.529333    0.251695
H       2.780888   -0.282167   -0.591582
H       2.586193   -0.412436   -2.348126
H       2.163225    1.091942   -1.517091
H       1.308870   -2.789796   -1.084079
H      -0.978345   -3.399725   -2.242087
H      -2.008979   -1.161253   -3.300051
H      -2.103071   -0.724669   -1.569697
H       0.059716    0.381824   -3.266787
