17

C      -0.052242    1.506169    0.021528
C      -0.007812    0.002934    0.006832
N      -0.214030   -0.614914   -1.162316
C      -0.172679   -1.947473   -1.165642
C       0.074343   -2.685512   -0.006442
C       0.124941   -4.192840    0.009831
O      -0.111458   -4.686480   -1.294827
N       0.281010   -2.075922    1.163639
C       0.238776   -0.745817    1.162084
H       0.127857    1.903467    1.023591
H       0.700714    1.918251   -0.657815
H      -1.026653    1.863942   -0.325952
H      -0.339296   -2.451048   -2.110977
H       1.109278   -4.502990    0.394591
H      -0.624924   -4.557563    0.729444
H      -0.075115   -5.646021   -1.265276
H       0.407174   -0.249831    2.115526
