17

N       0.110345    1.314497   -0.094923
C      -0.001539   -0.053149   -0.030536
N      -1.114125   -0.686950    0.008236
C      -0.837878   -2.110491    0.242492
C       0.681538   -2.275511    0.249999
C       1.376686   -3.416122    0.939044
O       1.048821   -4.659611    0.339604
O       1.268908   -1.872859   -1.007136
C       1.224439   -0.920587    0.072030
H       0.907243    1.677753   -0.595651
H      -0.756397    1.789269   -0.307371
H      -1.267089   -2.424927    1.202735
H      -1.306871   -2.722954   -0.534785
H       2.461936   -3.236985    0.936783
H       1.045233   -3.484344    1.980495
H       1.333744   -4.612514   -0.579933
H       2.182134   -0.564625    0.442684
