18

N      -0.580553    1.239236    0.022386
C      -0.653699    0.009104    0.294724
O      -0.667620   -0.889763   -0.718773
C      -0.718075   -2.267878   -0.365644
C      -2.122035   -2.739878    0.004937
C      -2.438190   -4.270710    0.052514
C      -3.229013   -4.073307    1.382009
C      -2.566450   -2.694157    1.481126
O      -2.314413   -1.956640    2.391752
H      -0.581982    1.778826    0.885907
H      -0.724683   -0.442903    1.290056
H      -0.377811   -2.802535   -1.257035
H      -0.011250   -2.484196    0.446714
H      -2.849870   -2.214521   -0.624037
H      -2.994145   -4.671601   -0.794910
H      -1.535384   -4.868911    0.201852
H      -4.308589   -3.987239    1.222036
H      -3.049225   -4.760433    2.211507
