19

C      -0.006520   -1.254292   -0.033043
C      -0.003556   -0.051553   -0.006041
C      -0.033872    1.397873   -0.008893
C      -0.116003    2.074463    1.404059
C       1.417870    1.767683    1.515310
C       1.367601    2.102700   -0.015865
C       1.027327    3.604816    0.043893
C      -0.356314    4.105874   -0.291946
C      -0.071300    3.583907    1.095363
H      -0.006163   -2.315723   -0.053766
H      -0.756686    1.725090   -0.757617
H      -0.836574    1.723502    2.142087
H       2.012739    2.429408    2.150016
H       1.639705    0.720298    1.726265
H       2.143200    1.780214   -0.709788
H       1.852108    4.307414    0.081516
H      -0.444343    5.186011   -0.362444
H      -1.009336    3.588361   -0.984546
H      -0.083673    4.270572    1.934208
