14

O       0.010581    1.444261    0.005404
C       1.364284    1.789713    0.029455
C       2.082135    0.622272    0.601983
O       1.107354   -0.339421    0.880147
C       0.037870    0.005915   -0.018235
C       0.403319   -0.447199   -1.400385
C       1.566676    0.054259   -1.836513
C       2.268343    0.943339   -0.903362
H       1.547636    2.837775    0.217017
H       2.906242    0.628277    1.300583
H      -0.900430   -0.374719    0.382079
H      -0.235130   -1.115688   -1.962991
H       1.988505   -0.164510   -2.811506
H       3.215412    1.386481   -1.187213
