17

C       0.075594    1.576039    0.063326
C       0.103264    0.063791    0.083177
C       1.312614   -0.785124   -0.192268
N       2.542801   -0.207488    0.357077
C       1.993725   -0.125966    1.651401
O       2.427078    0.321604    2.675772
C       0.699707   -0.803931    1.205211
C      -0.056193   -1.855040    1.963027
H       1.013955    2.009533    0.418953
H      -0.104109    1.945468   -0.952208
H      -0.725786    1.957044    0.704234
H      -0.813251   -0.391375   -0.293910
H       1.363257   -1.590572   -0.914178
H       3.053196    0.556585   -0.072162
H      -0.537053   -1.423210    2.847189
H      -0.838680   -2.304602    1.343873
H       0.608364   -2.655231    2.304681
