16

N      -0.105389    1.276930   -0.389225
C      -0.043602    0.065656   -0.045277
O       1.105252   -0.611284    0.273120
C       0.836929   -1.997253    0.520195
C       0.427017   -2.333333    1.985537
C      -1.051426   -2.363722    1.543148
O      -1.623119   -1.036699    1.473025
C      -1.221848   -0.873911    0.082535
C      -0.620824   -2.286455    0.053486
H       0.823539    1.703397   -0.384402
H       1.658778   -2.572461    0.094862
H       0.787401   -3.324859    2.276609
H       0.694406   -1.601509    2.749866
H      -1.739144   -3.086814    1.984055
H      -2.060698   -0.596808   -0.555939
H      -0.836001   -2.995819   -0.740440
