27

C      -0.171717    1.616296   -0.031172
C      -0.157377    0.097730   -0.234572
C       0.972961   -0.425853   -1.145475
C       2.366593   -0.159674   -0.552210
C       0.788737   -1.914627   -1.399853
C      -0.153112   -2.485182   -2.444098
C      -0.991517   -1.629636   -3.372273
C       1.346660   -2.642725   -2.608782
C       2.124569   -1.953972   -3.712051
H       0.724963    1.971587    0.485582
H      -0.232232    2.143380   -0.990435
H      -1.035725    1.921504    0.567796
H      -0.084260   -0.402505    0.741374
H      -1.118022   -0.214403   -0.660849
H       0.905213    0.117403   -2.096446
H       2.476650   -0.660881    0.417266
H       3.152485   -0.539760   -1.211322
H       2.548960    0.907811   -0.397817
H       0.830784   -2.486766   -0.473314
H      -0.671211   -3.391160   -2.136972
H      -0.491284   -0.704791   -3.668640
H      -1.233410   -2.176837   -4.290708
H      -1.939759   -1.350255   -2.899478
H       1.721450   -3.642575   -2.400674
H       1.789857   -0.930122   -3.893953
H       3.192020   -1.909263   -3.469070
H       2.027354   -2.501293   -4.656758
