13

C       0.005488    1.461551    0.006587
N      -0.025809   -0.003620   -0.010843
C      -0.117650   -0.674450   -1.208154
N      -0.155930   -1.937910   -1.399474
O      -0.096937   -2.740589   -0.245149
C      -0.003989   -2.229618    1.022083
O       0.042273   -2.971120    1.954238
C       0.037540   -0.708548    1.182572
O       0.119392   -0.187237    2.265349
H       0.872108    1.828968   -0.549377
H      -0.909585    1.865613   -0.434416
H       0.079033    1.772173    1.047092
H      -0.163418   -0.061984   -2.102188
