23

C      -0.165022    1.065935    0.262861
O       0.685379   -0.062728    0.188233
C       0.891101   -0.547869   -1.105049
C       1.471383   -1.931243   -1.116280
O       1.675993   -2.557666    0.115435
C       0.056000   -1.713648   -1.626912
C      -1.140582   -2.276416   -0.876008
C      -2.454966   -1.675098   -1.396373
C      -1.164498   -3.810497   -0.968833
H       0.235588    1.902572   -0.327536
H      -1.177468    0.838496   -0.093503
H      -0.211381    1.363327    1.312960
H       1.253345    0.203453   -1.807383
H       2.252700   -2.168534   -1.833504
H       1.536986   -1.884307    0.794114
H      -0.044314   -1.741004   -2.711326
H      -1.032608   -2.007165    0.180418
H      -2.619021   -1.945153   -2.446584
H      -3.310183   -2.048044   -0.822859
H      -2.458719   -0.582107   -1.334663
H      -0.254847   -4.233768   -0.537112
H      -2.027408   -4.220971   -0.432947
H      -1.236491   -4.138985   -2.012766
