21

C      -0.098606    1.423547   -0.152213
O      -0.231227    0.166393    0.475301
C      -1.352872   -0.551746    0.047600
C      -1.264345   -1.322970   -1.289268
O      -1.575053   -2.561220   -0.619892
C      -1.497030   -1.952730    0.682214
C      -0.431625   -2.436265    1.691296
C      -1.489481   -2.258845    2.816050
C      -2.594432   -2.248794    1.721967
H       0.782893    1.907624    0.274056
H       0.041471    1.328342   -1.239408
H      -0.978956    2.059978    0.027725
H      -2.262802    0.060896    0.136846
H      -1.998367   -1.079196   -2.065384
H      -0.254906   -1.325671   -1.721204
H      -0.201892   -3.489156    1.504772
H       0.492996   -1.861357    1.751387
H      -1.548941   -3.039056    3.576879
H      -1.394928   -1.290396    3.313379
H      -3.417249   -1.533425    1.809483
H      -3.008439   -3.246845    1.551274
