18

C      -0.158076    1.634356    0.191674
C      -0.004209    0.134322    0.024783
C      -1.223170   -0.569333   -0.556775
C      -1.502221   -0.146565   -1.988883
O      -2.581099    0.180034   -2.407392
C       1.355192   -0.420227   -0.302996
C       0.774108   -0.645833    1.086678
C       1.345522    0.028996    2.217025
N       1.800484    0.576450    3.129437
H       0.727163    2.082220    0.648746
H      -0.319746    2.116010   -0.778719
H      -1.018427    1.868315    0.827275
H      -1.051281   -1.654976   -0.574607
H      -2.120636   -0.381740    0.040639
H      -0.608810   -0.169728   -2.655281
H       1.435249   -1.294295   -0.939938
H       2.183511    0.274075   -0.382548
H       0.419303   -1.646346    1.311727
