21

C      -0.228489    1.413223   -0.124698
C      -0.024071   -0.085759    0.043623
C       1.176600   -0.663554   -0.778298
N       1.949539   -0.804036    0.475923
C       0.731130   -0.604119    1.322293
C       0.974511    0.380044    2.461346
C       0.130859   -1.910154    1.851532
C       0.890449   -1.909017   -1.493055
N       0.681501   -2.905870   -2.042158
H       0.711050    1.965347   -0.028031
H      -0.644890    1.631724   -1.113687
H      -0.927565    1.801634    0.622506
H      -0.963389   -0.613439   -0.133600
H       1.630415    0.039888   -1.486304
H       2.424575   -1.693772    0.592283
H       1.440603    1.300046    2.103249
H       0.039271    0.633677    2.972472
H       1.647424   -0.065864    3.202125
H       0.806469   -2.377617    2.577323
H      -0.821988   -1.723430    2.359291
H      -0.050693   -2.626478    1.044537
