20

O       0.172409    1.179454   -0.394731
C       0.132653   -0.163548    0.024370
C       0.115673   -0.484465    1.545502
C      -0.992887   -1.535164    1.256507
C      -2.131311   -1.664438    2.261213
N      -3.184813   -2.566012    1.817452
C      -3.359995   -3.813741    2.329167
O      -2.706816   -4.303151    3.226442
C      -1.258980   -0.814289   -0.097816
H       1.074669    1.501302   -0.300727
H       0.894516   -0.765516   -0.491568
H       1.038516   -0.822830    2.022486
H      -0.285001    0.372644    2.097325
H      -0.555532   -2.523810    1.085642
H      -1.762139   -2.068710    3.207205
H      -2.564653   -0.676061    2.461443
H      -3.764879   -2.288326    1.041669
H      -4.194366   -4.346461    1.830039
H      -2.027011   -0.039904    0.007800
H      -1.471707   -1.414687   -0.984939
