17

C       0.020964    1.601804    0.385518
C      -0.146096    0.382361   -0.515946
N      -1.538328   -0.058260   -0.533601
C      -1.841599   -1.060728   -1.236781
C      -3.234135   -1.649782   -1.369245
O      -3.089288   -2.764385   -2.260811
C      -1.794818   -2.890511   -2.657368
O      -1.389174   -3.733676   -3.400189
N      -1.063149   -1.876779   -2.046484
H       1.062996    1.935679    0.401951
H      -0.603343    2.426866    0.031105
H      -0.284874    1.365041    1.408501
H       0.189782    0.629608   -1.536357
H       0.507922   -0.430835   -0.160774
H      -3.619434   -2.000680   -0.408050
H      -3.939326   -0.931670   -1.796520
H      -0.074050   -1.787963   -2.204678
