16

C      -0.073583    1.499259   -0.008775
C      -0.026535   -0.003310    0.028117
N       0.019296   -0.633689   -1.154882
C       0.061526   -1.968743   -1.143795
C       0.112832   -2.674049   -2.471162
N       0.062363   -2.745051   -0.048459
C       0.016658   -2.108099    1.119383
C      -0.029609   -0.722985    1.220443
H       0.804522    1.890209   -0.532400
H      -0.951988    1.834297   -0.569370
H      -0.108440    1.929716    0.994590
H       1.012812   -3.293878   -2.534953
H      -0.743247   -3.348466   -2.573798
H       0.108341   -1.951035   -3.286875
H       0.017061   -2.731443    2.011767
H      -0.066338   -0.227346    2.183367
