17

C       0.168998    1.529851    0.117632
C       0.081285    0.027947    0.195606
O       1.036378   -0.714217    0.245095
C      -1.342421   -0.576652    0.225369
O      -2.314880    0.135332    0.271938
C      -1.391760   -2.093685    0.227356
C      -1.122240   -2.762616    1.603473
C      -2.567360   -3.280732    1.451426
O      -2.723340   -2.613266    0.178911
H       1.212857    1.842526    0.147927
H      -0.305926    1.881455   -0.804651
H      -0.395291    1.981586    0.939202
H      -0.761856   -2.473836   -0.586316
H      -0.334537   -3.514834    1.595996
H      -0.955306   -2.073961    2.432973
H      -2.673069   -4.367330    1.354337
H      -3.286358   -2.913471    2.192163
