15

C       0.011607    1.504347   -0.033045
C      -0.047978    0.009031    0.011269
C      -1.156114   -0.741343   -0.131950
C      -1.102173   -2.200838   -0.071301
N      -2.166318   -2.901737   -0.209489
N       0.172085   -2.787671    0.145440
C       1.188227   -2.018611    0.273854
N       1.159293   -0.650771    0.220306
H       0.670406    1.851221   -0.838621
H      -0.982780    1.919448   -0.201835
H       0.400077    1.913723    0.907592
H      -2.119541   -0.276166   -0.296575
H      -1.913773   -3.889652   -0.135230
H       2.175974   -2.446827    0.440873
H       2.011334   -0.126519    0.332276
