18

C      -0.071568    1.378825    0.253026
O      -0.042656    0.045059   -0.235046
C      -1.240693   -0.631354   -0.074993
C      -1.337490   -1.992922   -0.745193
N      -0.438248   -2.919872   -0.022826
C      -1.785161   -2.635012    0.523838
C      -1.604150   -1.341704    1.323501
C      -0.525682   -1.356423    2.380671
O      -0.247543   -0.395563    3.056744
H       0.911079    1.810188    0.051701
H      -0.836359    1.973634   -0.269936
H      -0.265797    1.406644    1.331084
H      -2.096475   -0.003662   -0.365518
H      -1.625055   -2.191620   -1.769853
H      -0.479787   -3.815241   -0.507849
H      -2.516832   -3.418029    0.672997
H      -2.517507   -0.916431    1.744932
H       0.007496   -2.320986    2.501487
