19

C      -0.069262    1.522993   -0.005135
C       0.105347    0.020639    0.051760
C       1.395948   -0.716273   -0.206841
C       2.597805   -0.012748    0.371503
C       3.202731   -0.818214    1.482219
C       1.935510   -0.036333    1.780368
C       1.897855    0.993447    2.765900
C       1.852935    1.855525    3.605462
C       0.734504   -0.748385    1.187864
H       0.773896    2.052204    0.442894
H      -0.170663    1.859763   -1.042975
H      -0.972882    1.826928    0.534023
H      -0.744902   -0.523200   -0.359823
H       1.454296   -1.534019   -0.917001
H       3.122881    0.826974   -0.069057
H       3.160491   -1.903876    1.455409
H       4.104504   -0.409022    1.926790
H       1.812985    2.615652    4.345365
H       0.230571   -1.582606    1.663819
