23

C      -0.044266    1.526540    0.021483
C       0.015593    0.023614    0.007914
C      -0.099542   -0.793805   -1.285244
C      -0.659729   -1.989895   -0.452117
C       0.468863   -2.957715   -0.075248
C       1.481649   -2.049160    0.668615
C       0.656398   -0.829085    1.108231
C       1.043271   -0.163049    2.409596
C      -0.799899   -1.028012    0.757611
H       0.859463    1.959515   -0.426076
H      -0.900529    1.884429   -0.562577
H      -0.138866    1.937456    1.030012
H      -0.863080   -0.364665   -1.941469
H       0.808442   -0.972279   -1.875249
H      -1.560007   -2.463802   -0.844132
H       0.089569   -3.737788    0.595175
H       0.903093   -3.455817   -0.948760
H       1.915219   -2.553397    1.538685
H       2.320243   -1.760455    0.024759
H       2.021185    0.328190    2.337211
H       0.317099    0.591483    2.723869
H       1.108962   -0.906278    3.212703
H      -1.628505   -0.922636    1.447810
