18

O       0.365149    0.890256    0.732390
C       0.053880   -0.134594   -0.195149
C      -1.415509   -0.502040   -0.135890
C      -2.373287    0.609158   -0.538972
N      -3.739551    0.317169   -0.160127
C      -4.785880    0.403621   -1.023830
O      -4.711464    0.757316   -2.181651
C      -1.821106   -1.909893   -0.160071
O      -1.771548   -1.189792    1.083539
H       0.152391    0.545134    1.607328
H       0.307292    0.258283   -1.185784
H       0.660553   -1.034700   -0.021397
H      -2.025643    1.538729   -0.072161
H      -2.360697    0.754165   -1.622580
H      -3.892455   -0.030832    0.773885
H      -5.738847    0.110819   -0.540477
H      -2.820696   -2.171812   -0.499114
H      -1.067934   -2.687546   -0.273499
