20

C       0.352909    1.380763   -0.320850
C       0.008400   -0.088175   -0.074148
O       0.903967   -0.679257    0.863280
C      -1.446630   -0.283899    0.365049
C      -2.498349   -0.148487   -0.775638
C      -2.584347   -1.707745   -0.846718
C      -1.853294   -1.773842    0.533750
C      -3.902198   -2.308677   -0.951071
N      -4.959187   -2.773840   -1.016026
H       1.397152    1.477558   -0.628859
H      -0.279756    1.820707   -1.097970
H       0.209567    1.967755    0.595247
H       0.179197   -0.655070   -0.999462
H       0.852524   -0.170102    1.680281
H      -1.638512    0.346644    1.240489
H      -3.436123    0.293457   -0.434914
H      -2.186344    0.353890   -1.694108
H      -1.954697   -2.103445   -1.647905
H      -1.036120   -2.490927    0.618389
H      -2.556520   -1.931371    1.353346
