20

C      -0.293214    1.558206    0.057930
C       0.157503    0.106101   -0.048218
C       1.485389   -0.257822   -0.795513
C       1.941949   -1.073903    0.421446
C       2.026566   -0.205552    1.634587
O       2.413355    1.153290    1.581514
C       3.736269    1.380681    1.433011
N       4.171478    2.564974    1.408155
C       0.670023   -0.632913    1.200610
H       0.494022    2.192059    0.469266
H      -0.571865    1.946008   -0.928491
H      -1.172938    1.644299    0.705820
H      -0.650421   -0.492025   -0.482262
H       1.319349   -0.867170   -1.685463
H       2.131880    0.583409   -1.061733
H       2.423410   -2.044277    0.382643
H       2.382354   -0.704588    2.534289
H       4.328146    0.460264    1.342126
H       5.182458    2.558862    1.288790
H       0.042139   -1.207828    1.872593
