17

C       0.005195    1.433924    0.011242
N      -0.216831    0.016866   -0.228961
C       0.692065   -0.562919   -1.184102
C       0.677363   -2.069179   -1.125009
O       0.217292   -2.700672   -0.204231
C       1.349526   -2.865540   -2.279530
O       1.418065   -4.217807   -1.957542
C       0.597525   -2.626408   -3.530396
N       0.010444   -2.419306   -4.503830
H       1.032129    1.681659    0.335911
H      -0.197160    2.000472   -0.904766
H      -0.691034    1.784066    0.777586
H      -0.189040   -0.517779    0.631498
H       0.445566   -0.239825   -2.205097
H       1.758675   -0.276468   -1.036982
H       2.362623   -2.461136   -2.426516
H       0.847530   -4.323527   -1.176513
