18

C       0.013765    1.469665   -0.070602
C       0.210065   -0.047681   -0.036657
C       0.619094   -0.564271    1.351808
N       0.713573   -2.013308    1.401408
C       1.842577   -2.553552    1.192353
N       3.123548   -2.074724    0.924429
N       4.039594   -3.084707    0.814063
N       3.430934   -4.181755    0.973316
N       2.117818   -3.914156    1.188480
H       0.934230    1.999199    0.201484
H      -0.281761    1.810747   -1.067328
H      -0.765402    1.783681    0.632784
H      -0.713421   -0.557874   -0.332626
H       0.970857   -0.344393   -0.770631
H       1.552830   -0.060228    1.665608
H      -0.141319   -0.252884    2.078757
H       3.428109   -1.122316    0.841370
H       1.465214   -4.656503    1.369196
