16

N       0.002665    1.261785    0.029823
C      -0.065217    0.008167   -0.022518
O       1.032473   -0.864013   -0.170376
C       0.327858   -2.095759   -0.159654
C       0.414302   -3.621358   -0.239767
C      -1.119968   -3.253534   -0.073073
C      -0.792598   -2.089430    0.906186
C      -1.305733   -0.890567    0.056071
C      -0.976725   -2.000567   -0.984566
H       0.969733    1.581246   -0.049325
H       0.711107   -4.057154   -1.197457
H       0.885966   -4.141542    0.598161
H      -1.952782   -3.950449   -0.024727
H      -0.635041   -2.146668    1.982805
H      -2.260047   -0.382444    0.172888
H      -1.029907   -1.956104   -2.071950
