17

C      -0.083855    1.567917   -0.000091
C      -0.016658    0.034342   -0.002227
C       1.187687   -0.525720   -0.824558
O       1.940156   -0.781960    0.373194
C       0.790256   -0.545959    1.202960
C      -1.308567   -0.565100   -0.261462
C      -2.390261   -1.065161   -0.478614
C      -3.604385   -1.628087   -0.722345
C      -4.682358   -2.127690   -0.938894
H       0.909000    1.982902    0.198666
H      -0.431391    1.942323   -0.967215
H      -0.772169    1.924977    0.771285
H       0.960537   -1.445124   -1.377200
H       1.685855    0.191770   -1.486208
H       0.999090    0.156791    2.017378
H       0.374760   -1.474954    1.611185
H      -5.629791   -2.567396   -1.129127
