14

C       0.057997    1.502154    0.061922
N      -0.168921    0.076734   -0.102104
C       0.507734   -0.638385   -1.049525
C       0.665820   -2.002572   -1.159872
O       1.372443   -2.297047   -2.291776
N       1.689629   -1.129735   -2.927209
C       1.189523   -0.154413   -2.208280
C       0.233185   -3.041496   -0.319874
N      -0.148407   -3.852333    0.417148
H       1.097346    1.748944    0.322363
H      -0.204898    2.035842   -0.857092
H      -0.595656    1.870773    0.854268
H      -0.398293   -0.432036    0.737796
H       1.327378    0.866393   -2.531893
