21

C      -0.272705    1.619003   -0.134117
C       0.002631    0.129097   -0.007400
C       1.173466   -0.595333   -0.711306
C       2.446022    0.132495   -0.239380
C       2.105252    0.137363    1.286334
O       2.002387    1.408670    1.906049
C       0.718099   -0.549261    1.201182
C       0.038005   -0.936337    2.482081
O       1.059935   -1.653864    0.295459
H       0.598396    2.228944    0.104393
H      -0.605102    1.857303   -1.151070
H      -1.075612    1.917014    0.548807
H      -0.905422   -0.450440   -0.199616
H       1.119514   -0.951563   -1.740561
H       3.344837   -0.441840   -0.474619
H       2.553129    1.144299   -0.640428
H       2.788203   -0.510608    1.850542
H       2.889388    1.762683    2.018281
H      -0.120249   -0.045574    3.097389
H      -0.927069   -1.413359    2.291243
H       0.662254   -1.634948    3.049771
