15

N       0.077045   -1.051600    0.028110
C       0.019900    0.103027    0.008282
C      -0.013556    1.537731   -0.024851
O      -1.079124    2.127439    0.675085
C      -1.362862    3.380117    0.026985
C      -0.087897    3.681005   -0.746176
N       1.037682    3.693575    0.273662
C       1.319848    2.296788   -0.105050
C       0.365055    2.289995   -1.277483
H      -2.234895    3.279700   -0.634966
H      -1.565036    4.121734    0.802872
H      -0.123099    4.530517   -1.425892
H       1.791431    4.270245   -0.094079
H       2.277553    1.816241    0.055588
H       0.387861    1.892249   -2.283508
