22

C       0.106226    1.515662   -0.014215
C      -0.008639    0.004738    0.023204
C      -1.323913   -0.548313   -0.522608
C      -2.433476   -0.617572    0.542542
C      -2.301709   -1.796831    1.515560
O      -1.159934   -1.786033    2.353663
C       0.068092   -2.011535    1.681029
C       0.672484   -0.738026    1.116102
N       1.266249   -0.696030   -0.239648
H       1.051668    1.841752    0.425615
H       0.071382    1.879176   -1.047594
H      -0.713267    1.989733    0.537532
H      -1.651257    0.082790   -1.357141
H      -1.172036   -1.548971   -0.947197
H      -2.465712    0.318540    1.112260
H      -3.409126   -0.718535    0.049358
H      -3.159093   -1.802663    2.196647
H      -2.329666   -2.740326    0.941854
H       0.745579   -2.445337    2.424186
H      -0.064966   -2.761502    0.884269
H       1.231390   -0.152429    1.843982
H       1.084407   -1.579621   -0.713525
