16

O       0.345816    1.053011   -0.614793
C       0.015210   -0.212403   -0.121117
C       0.500394   -0.438429    1.297810
N       1.536862    0.114345    1.754460
O      -0.352128   -1.254271    1.970207
C      -1.531025   -1.509164    1.174404
C      -1.471023   -0.491219    0.042352
C      -2.517216    0.484521   -0.261690
O      -2.303907   -0.682179   -1.081282
H       1.084183    1.360414   -0.067301
H       0.436244   -1.007173   -0.762800
H       1.698178   -0.106716    2.736743
H      -1.490670   -2.532229    0.783320
H      -2.406442   -1.407210    1.818837
H      -3.442324    0.483665    0.312481
H      -2.231753    1.427648   -0.719357
