18

O       0.537429    0.260314    0.897046
C       0.283589    1.376055    0.542391
C      -1.042295    2.125623    0.224981
C      -0.159296    3.215068   -0.397118
N       0.653815    3.727902    0.713562
C       1.122201    2.500863   -0.036267
C       2.456765    2.429937   -0.670442
C       3.589764    1.702636    0.022388
C       2.980402    1.123283   -1.225688
H      -1.638469    1.551725   -0.490169
H      -1.658082    2.436114    1.071484
H      -0.361480    3.799924   -1.284987
H       1.233642    4.489739    0.357079
H       2.729064    3.327524   -1.221419
H       4.580532    2.139421   -0.033088
H       3.361117    1.209003    0.959756
H       2.359679    0.243002   -1.110552
H       3.546797    1.163418   -2.149222
