11

N      -0.097548    1.366602    0.010971
C      -0.005732    0.101927    0.003515
N       1.154412   -0.677649   -0.007357
N       1.224299   -2.027535   -0.015147
N       0.178318   -2.723350   -0.012987
C      -1.116366   -2.092930   -0.002109
O      -2.123122   -2.748667    0.000007
N      -1.124093   -0.708044    0.005454
H       0.809113    1.827134    0.008334
H       2.058271   -0.231346   -0.010060
H      -2.022899   -0.243826    0.013120
