21

C      -0.011127    1.595226    0.075091
C       0.087996    0.067743    0.049396
C       0.696568   -0.486059   -1.247569
C       2.215815   -0.286149   -1.275798
C       2.820769   -1.406136   -1.717073
C       3.272672   -2.405580   -0.643225
C       1.834991   -2.991679   -0.909894
C       0.674714   -2.023805   -1.396262
C       1.795123   -2.404144   -2.291103
H       0.973258    2.063805   -0.029211
H      -0.637088    1.961746   -0.746091
H      -0.449493    1.949602    1.013140
H       0.677180   -0.287842    0.904403
H      -0.913312   -0.366079    0.168342
H       0.142368   -0.051754   -2.095003
H       2.679602    0.356841   -0.531017
H       4.016202   -3.153484   -0.943526
H       3.524110   -1.997123    0.340088
H       1.550125   -4.005996   -0.638906
H      -0.283237   -2.538547   -1.470388
H       1.786869   -2.882172   -3.261730
