18

C       0.074052    1.434236    0.032867
N       0.103070   -0.020091    0.004641
C       0.629168   -0.617630   -0.966754
O       1.190897    0.012111   -2.060544
C       1.879756   -0.906397   -2.903696
C       1.718665   -2.284864   -2.262194
O       2.282311   -3.287691   -2.608333
C       0.730167   -2.119829   -1.116202
C       1.087516   -2.888752    0.155346
H       0.831411    1.906441   -0.602871
H      -0.912017    1.788449   -0.292234
H       0.211082    1.769870    1.065068
H       1.444740   -0.891968   -3.910228
H       2.937916   -0.632951   -2.979826
H      -0.236616   -2.483345   -1.498154
H       2.048320   -2.553038    0.555178
H       0.325398   -2.718852    0.917745
H       1.159326   -3.956860   -0.062434
