17

C       0.145870    1.490592   -0.013677
O       0.109305    0.075768   -0.083888
C       0.575170   -0.550207    1.059711
C       2.091580   -0.599253    1.343069
O       2.032090   -2.030797    1.563566
C       0.647804   -2.106573    1.143452
C      -0.249056   -2.049060    2.400252
O      -0.711346   -2.869149    3.134434
C      -0.313430   -0.504605    2.344399
H       1.170847    1.864524    0.123026
H      -0.243212    1.866502   -0.961759
H      -0.478337    1.873331    0.806158
H       2.701623   -0.360069    0.463269
H       2.468935   -0.061232    2.219340
H       0.466405   -2.814738    0.332308
H       0.053459    0.035774    3.220518
H      -1.332746   -0.174107    2.116902
