17

C       0.010978    1.556002    0.016929
C       0.080994    0.051147    0.011384
C      -0.799013   -0.803103    0.876442
C       0.721479   -0.761601    1.116019
C       1.514522   -1.831548    0.447315
O       2.277095   -2.627896    0.932705
C       1.210034   -1.733686   -1.048763
N       1.526685   -2.566816   -1.955763
N       0.507727   -0.561616   -1.230575
H       0.972007    1.988758   -0.275754
H      -0.751109    1.912854   -0.685371
H      -0.254072    1.928285    1.010218
H      -1.395339   -0.326778    1.647172
H      -1.231727   -1.703478    0.453624
H       1.086706   -0.323680    2.035722
H       2.073882   -3.313718   -1.521569
H      -0.058953   -0.462374   -2.060740
