16

O      -0.037004    1.348798    0.130425
C      -0.060331   -0.056218   -0.047153
C       0.591453   -0.838337    1.109630
N      -0.429022   -0.794320    2.165622
C      -1.720138   -0.957040    1.517329
C      -1.530891   -0.452860    0.071163
O      -1.788540   -1.797262   -0.449879
C      -1.988122   -2.310626    0.813791
O      -2.231795   -3.435766    1.107720
H       0.860786    1.614818    0.349956
H       0.357573   -0.350611   -1.018972
H       0.831130   -1.855555    0.759570
H       1.524015   -0.377207    1.453202
H      -0.272535   -1.476211    2.899320
H      -2.545870   -0.577956    2.121492
H      -2.219289    0.278501   -0.348133
