21

C       0.178743    1.557894    0.156309
C       0.175802    0.050908    0.038357
O       0.938266   -0.362372   -1.086317
C       1.578218   -1.587131   -0.748770
C       1.199396   -1.832562    0.729897
C       2.324815   -2.343388    1.611804
C       1.904951   -2.531239    3.064648
O       3.016922   -3.068997    3.764904
O       0.785375   -0.538797    1.162003
H       1.204686    1.914721    0.273751
H      -0.254050    2.000322   -0.744257
H      -0.413665    1.868238    1.020934
H      -0.856240   -0.337384   -0.065789
H       1.232891   -2.398737   -1.400887
H       2.661534   -1.471183   -0.876860
H       0.339008   -2.521592    0.779392
H       2.678476   -3.304838    1.220327
H       3.165865   -1.642789    1.566486
H       1.591570   -1.564112    3.482046
H       1.036215   -3.209121    3.114665
H       2.789601   -3.115560    4.697867
