17

C      -0.296232    1.337765   -0.829321
C      -0.053212    0.058513   -0.059755
C       1.138322   -0.756787   -0.371472
O       1.111668    0.070239    0.789896
C      -1.239490   -0.597152    0.542969
C      -2.551549   -0.409403    0.228806
O      -3.349458   -1.198085    0.996007
C      -2.529310   -1.898592    1.824270
C      -1.232367   -1.577040    1.596722
H       0.650638    1.751906   -1.182474
H      -0.939514    1.154399   -1.696636
H      -0.785366    2.082073   -0.193589
H       1.116384   -1.829695   -0.185843
H       1.815512   -0.435085   -1.162750
H      -3.060985    0.214457   -0.486250
H      -3.020555   -2.567731    2.511129
H      -0.365031   -1.949674    2.117306
