20

C      -0.132637    1.519337   -0.240083
C      -0.137136    0.032036   -0.569778
O       0.552839   -0.445234   -1.447190
N      -0.982150   -0.717206    0.218869
C      -1.060280   -2.132310    0.180477
C      -1.331400   -2.861735   -1.097693
C      -2.297009   -3.036454    0.042485
C      -1.710458   -4.011526    1.070732
C      -0.459870   -3.082611    1.228292
H       0.642346    1.723520    0.506791
H       0.116758    2.075958   -1.143947
H      -1.089435    1.871906    0.155865
H      -1.447634   -0.246184    0.979443
H      -1.672762   -2.229674   -1.908839
H      -0.681113   -3.676328   -1.407585
H      -3.339930   -2.756280   -0.046939
H      -2.295455   -4.082723    1.990254
H      -1.518006   -5.023366    0.700663
H       0.520521   -3.506038    0.987806
H      -0.411268   -2.631155    2.223001
