19

C      -0.500405    1.351413    0.183556
C      -0.045844   -0.083144   -0.036680
C       0.834494   -0.421033   -1.301264
C       1.167000    0.671983   -2.309356
C       1.939387   -0.804482   -0.319983
N       3.120883   -1.213262   -0.456003
N       1.109625   -0.510570    0.788989
C       1.309945   -0.656713    2.131252
O       2.345795   -1.048427    2.624496
H       0.334976    2.053061    0.117714
H      -1.248156    1.630125   -0.565565
H      -0.961715    1.465124    1.169695
H      -0.893358   -0.768070    0.074150
H       0.449908   -1.303060   -1.822081
H       1.569581    1.566284   -1.826146
H       1.926685    0.304179   -3.004322
H       0.284668    0.960109   -2.889233
H       3.556415   -1.364712    0.455481
H       0.418500   -0.377508    2.726727
