18

C       0.111388    1.342135    0.399812
C       0.066060   -0.115622    0.018386
C      -1.125635   -0.749229   -0.091074
C      -1.414156   -2.129546   -0.435218
C      -0.573802   -3.150640   -0.223208
C       0.769477   -2.897927    0.384801
O       1.578631   -2.033721   -0.430255
C       1.383797   -0.686572   -0.368885
N       2.322983    0.106060   -0.706986
H       0.745360    1.496790    1.279197
H       0.560280    1.932461   -0.403615
H      -0.889992    1.720987    0.617674
H      -2.005835   -0.134392    0.088606
H      -2.403513   -2.324151   -0.841718
H      -0.851987   -4.166771   -0.482105
H       0.661185   -2.446799    1.381670
H       1.351948   -3.815756    0.483197
H       3.154200   -0.436149   -0.950050
