20

C       0.032391    1.578693    0.094628
C      -0.006544    0.051833   -0.001940
C       0.696820   -0.493065   -1.251076
O       2.062141   -0.075763   -1.308280
C       0.576578   -2.017172   -1.366174
C       1.239985   -2.564586   -2.645272
C       1.196364   -4.018340   -2.731988
C       1.147699   -5.218785   -2.777315
H       1.062901    1.941212    0.056450
H      -0.510673    2.038697   -0.738291
H      -0.424040    1.928987    1.025088
H       0.467044   -0.393214    0.885954
H      -1.045125   -0.301632    0.000721
H       0.242692   -0.033918   -2.140182
H       2.502239   -0.416929   -0.520806
H       1.041435   -2.486279   -0.488505
H      -0.480459   -2.305325   -1.347474
H       0.746289   -2.129883   -3.524641
H       2.277542   -2.214353   -2.679213
H       1.112175   -6.278379   -2.831437
