21

C       0.062156    1.510511    0.077827
C       1.363117    0.752910   -0.038908
O       2.197311    0.853754    1.072323
C       3.100265   -0.234781    1.240566
C       2.424049   -1.591628    1.440682
C       1.374291   -1.637903    2.560353
C       0.164064   -0.710532    2.357259
O      -0.400737   -0.829590    1.055123
C       0.047514   -0.000417    0.026698
H      -0.094497    1.979165    1.043699
H      -0.319375    2.075726   -0.765426
H       1.893728    0.749433   -0.994081
H       3.788486   -0.286283    0.381190
H       3.691807    0.032736    2.122995
H       1.957577   -1.915237    0.504544
H       3.214290   -2.321621    1.655628
H       1.012686   -2.669369    2.642888
H       1.834581   -1.388276    3.526356
H      -0.634647   -1.007519    3.045968
H       0.428947    0.325206    2.582069
H      -0.277866   -0.433844   -0.915204
