15

C       0.187947    1.124021    0.791450
C      -0.106544    0.142154   -0.323843
O       0.592019    0.042471   -1.307591
C      -1.351193   -0.714236   -0.196309
C      -1.956474   -1.191156   -1.494195
C      -1.526148   -1.501799    1.045019
O      -2.266180   -0.307943    0.835337
H       1.154008    1.594127    0.605796
H      -0.598694    1.885189    0.822138
H       0.186915    0.642833    1.773739
H      -1.210853   -1.739939   -2.073465
H      -2.817042   -1.835133   -1.300055
H      -2.285978   -0.340839   -2.098801
H      -2.094872   -2.429033    0.987820
H      -0.779156   -1.464630    1.836337
