19

C       0.044491    1.390971    0.010772
O       0.014688   -0.016750   -0.031491
C      -1.289130   -0.545192    0.051641
C      -1.196941   -2.071505   -0.016237
C      -2.568972   -2.772840    0.035040
C      -2.630738   -3.658724   -1.223190
O      -3.537980   -4.398378   -1.523789
C      -1.376368   -3.419680   -1.974615
C      -0.595474   -2.555186   -1.317605
H       1.090911    1.698081   -0.053972
H      -0.510561    1.836470   -0.829590
H      -0.383257    1.778965    0.948426
H      -1.773343   -0.240163    0.994921
H      -1.916155   -0.169146   -0.775727
H      -0.553595   -2.386224    0.815509
H      -2.709125   -3.388398    0.927368
H      -3.403501   -2.063336    0.007154
H      -1.166309   -3.904336   -2.919576
H       0.375026   -2.199530   -1.643362
