13

N      -0.059002    1.454725   -0.013773
C      -0.012978    0.086773   -0.017186
N      -0.907266   -0.747564    0.414885
C      -0.310036   -1.997132    0.241720
C       0.915430   -1.829335   -0.291771
O       1.906756   -2.645424   -0.710236
C       2.662493   -3.263437    0.265041
O       3.525113   -4.029289   -0.008980
O       1.136154   -0.477766   -0.466119
H       0.478974    1.905613   -0.739059
H      -0.995346    1.817582    0.086971
H      -0.812090   -2.916282    0.495756
H       2.339819   -2.959105    1.275843
