15

O       0.354127    0.823158   -0.941203
C      -0.065401    0.285575    0.299015
C      -1.364167   -0.477853    0.211134
C      -1.938582   -0.811024   -0.955350
O      -3.109295   -1.499796   -1.022765
C      -3.740706   -1.885090    0.147536
N      -4.835660   -2.524331    0.150180
C      -3.049816   -1.497530    1.380445
N      -1.946275   -0.841630    1.425932
H      -0.232817    1.555128   -1.158022
H       0.736500   -0.386625    0.626943
H      -0.163509    1.054944    1.079178
H      -1.534882   -0.580583   -1.931165
H      -5.161927   -2.701628   -0.800819
H      -3.534228   -1.802110    2.304921
