18

C      -0.020564    1.468486    0.014033
C       0.002346   -0.035217    0.000406
C       0.628845   -0.962815   -1.087065
C       0.031034   -1.933191   -0.016830
C       0.644852   -0.982046    1.061347
C      -1.224036   -1.000772    0.000983
C       0.052778   -3.367348   -0.029846
C       0.071044   -4.570490   -0.040769
H       0.995469    1.878316    0.009084
H      -0.545109    1.862677   -0.863314
H      -0.530080    1.846995    0.907014
H       0.145214   -0.971232   -2.067840
H       1.718897   -0.955581   -1.175044
H       1.736059   -0.976252    1.133047
H       0.176166   -1.008008    2.049068
H      -1.831169   -1.028271    0.910165
H      -1.845042   -1.011989   -0.899096
H       0.087191   -5.631913   -0.050428
