15

N      -0.234871    1.245664   -0.343556
C      -0.037671    0.066409    0.064071
O       1.015048   -0.257923    0.870622
C       1.350157   -1.621864    1.123112
C       0.142002   -2.486425    1.401285
N      -0.955297   -1.825604    2.087695
C      -1.108968   -2.172829    0.649567
C      -1.034212   -1.029731   -0.304876
O      -1.683526   -0.986423   -1.319255
H       0.503658    1.864408    0.001002
H       1.910610   -2.036081    0.273293
H       2.017543   -1.592979    1.989101
H       0.359300   -3.531843    1.609330
H      -1.487613   -2.488675    2.644521
H      -1.786385   -2.969361    0.360274
