22

C      -0.134728    1.653242    0.092363
C       0.092394    0.140481    0.075194
C       1.295283   -0.663874   -0.359379
C       2.627578   -0.285405    0.319524
C       3.910660   -0.932908   -0.111797
C       2.555044    0.833244    1.284386
N       2.060870   -0.499782    1.700958
C       0.729860   -0.833839    1.044121
C      -0.010439   -1.959188    1.701352
H       0.677086    2.206074   -0.386603
H      -1.049701    1.888110   -0.460369
H      -0.264840    2.045776    1.106079
H      -0.791270   -0.368619   -0.310555
H       1.267952   -1.350893   -1.197570
H       4.271533   -0.494512   -1.050201
H       4.685656   -0.802601    0.648699
H       3.771853   -2.007587   -0.274813
H       3.483340    1.081514    1.794276
H       1.879973    1.667307    1.179922
H      -0.426303   -1.636948    2.663943
H      -0.836253   -2.309121    1.074561
H       0.660652   -2.801017    1.898905
