18

O       0.001939    1.408786    0.101170
C       0.055709   -0.010070    0.014644
C      -1.345022   -0.529225   -0.002325
C      -1.838006   -1.999034   -0.069696
C      -3.017398   -1.593257    0.728832
C      -2.467144   -0.195291    1.073554
C      -3.139824    0.771965    0.069679
C      -2.499598   -0.143301   -0.984009
N      -3.074295   -1.542601   -0.774930
H       0.902251    1.746243    0.088942
H       0.580644   -0.334312   -0.899860
H       0.600468   -0.442602    0.871122
H      -1.362346   -2.955190   -0.255861
H      -3.762282   -2.191334    1.238738
H      -2.252956    0.057813    2.110059
H      -4.229327    0.865189    0.081085
H      -2.658929    1.752414    0.078900
H      -2.384885    0.118333   -2.035064
