17

C       0.113671   -1.205384   -0.157066
C       0.014753   -0.008803   -0.055111
C      -0.044140    1.407800    0.054242
C      -1.203599    2.087678    0.060848
C      -1.284380    3.586816    0.154478
C      -0.080186    4.227102    0.872265
C       1.243842    3.562939    0.519436
O       1.704881    2.557894    1.432311
C       1.257117    2.146481    0.131408
H       0.187636   -2.261487   -0.237844
H      -2.136297    1.538428   -0.029292
H      -1.377243    3.994077   -0.864134
H      -2.211240    3.873034    0.663379
H      -0.037015    5.295992    0.641757
H      -0.211099    4.136817    1.955424
H       2.036136    4.209340    0.143697
H       2.049993    1.764084   -0.509691
