23

C      -0.262843    1.584107   -0.346463
C       0.013686    0.172194    0.167338
N      -1.223935   -0.599024    0.193916
C      -1.554622   -1.406495   -0.978028
C      -1.215739   -2.062076    0.322830
C       0.091341   -2.825333    0.444481
C      -2.351773   -2.588615    1.191473
C      -2.848517   -3.987181    0.806372
H       0.651323    2.186122   -0.338389
H      -0.641064    1.556139   -1.373782
H      -1.014496    2.078436    0.275074
H       0.800048   -0.289772   -0.452849
H       0.402746    0.219185    1.191938
H      -2.583829   -1.351518   -1.326770
H      -0.813261   -1.468746   -1.775455
H       0.869158   -2.433510   -0.213636
H       0.467735   -2.792484    1.474046
H      -0.053939   -3.878168    0.183509
H      -2.024703   -2.588954    2.240394
H      -3.175164   -1.870202    1.128071
H      -3.708451   -4.274538    1.419120
H      -3.160344   -4.020110   -0.243289
H      -2.077997   -4.751702    0.947897
