24

C       0.236093    1.524296   -0.038177
C       0.094350    0.000712    0.071600
C       0.647472   -0.509184    1.408257
C      -1.370284   -0.410066   -0.143236
N      -1.508631   -1.864124   -0.233973
C      -2.019106   -2.605560    0.917341
C      -2.840189   -2.461881   -0.315033
C      -4.128136   -1.662657   -0.324798
O      -4.261021   -0.889740    0.859175
H       1.280870    1.831229    0.075517
H      -0.117776    1.892764   -1.007320
H      -0.343261    2.032578    0.742425
H       0.676646   -0.462661   -0.735670
H       0.599606   -1.599387    1.469483
H       1.693368   -0.210885    1.538052
H       0.078604   -0.096663    2.250940
H      -2.004083    0.026506    0.643342
H      -1.711796    0.010513   -1.098604
H      -1.518686   -3.544498    1.142060
H      -2.347386   -2.036247    1.783165
H      -2.886546   -3.301671   -1.008683
H      -4.151169   -1.019012   -1.219301
H      -4.962156   -2.376580   -0.421713
H      -4.992235   -0.277324    0.736617
