17

C      -0.181872    1.383379    0.207193
C      -0.043380   -0.097675    0.039150
N       0.631604   -0.756949   -1.129401
C       0.184991   -1.909293   -0.288129
C       0.556931   -1.169025    1.026894
N      -0.758794   -1.491420    1.640143
C      -1.333386   -0.916768    2.741141
O      -2.501799   -0.606797    2.833459
C      -1.131509   -1.239048    0.225465
H       0.799874    1.865955    0.184119
H      -0.793149    1.810526   -0.594805
H      -0.668012    1.616648    1.159641
H       0.046288   -0.680699   -1.965616
H       0.359736   -2.954581   -0.539429
H       1.501227   -1.159913    1.568396
H      -0.616171   -0.841246    3.585006
H      -2.151412   -1.305722   -0.149173
