25

C       0.010381    1.591819    0.100222
C       0.004322    0.057955    0.121423
C      -1.385604   -0.535778   -0.005559
C      -2.380128   -0.364590    1.172209
C      -2.797343   -1.858807    1.031752
C      -1.671618   -2.086461   -0.020243
C      -2.074908   -1.998169   -1.515752
C      -3.316672   -2.708030   -2.035183
C      -2.071106   -0.442323   -1.408583
H       1.027313    1.986107    0.190246
H      -0.414994    1.977191   -0.832639
H      -0.580126    2.001933    0.926572
H       0.638575   -0.320846   -0.691922
H       0.462065   -0.295797    1.055318
H      -1.868354   -0.165000    2.119484
H      -3.166788    0.385863    1.045541
H      -2.684825   -2.447642    1.944848
H      -3.812832   -2.018448    0.659999
H      -0.917635   -2.829662    0.250346
H      -1.212823   -2.313179   -2.115306
H      -4.216252   -2.411584   -1.485438
H      -3.488016   -2.470176   -3.091235
H      -3.218585   -3.796479   -1.951617
H      -3.072357    0.000381   -1.375131
H      -1.498586    0.079383   -2.180848
