21

C       0.603216    1.410890   -0.430432
C       0.059688    0.091174    0.116499
O       0.045801   -0.900371   -0.923170
C       0.941499   -1.933923   -0.618721
C       2.396713   -1.578362   -0.453692
C       1.497962   -1.757383    0.756533
C       0.794382   -0.547524    1.350280
C       1.708473    0.399530    2.129230
O      -0.175103   -1.116839    2.240384
H       1.657762    1.347661   -0.711127
H       0.035770    1.684855   -1.324060
H       0.490300    2.215984    0.302718
H      -0.985741    0.248402    0.412227
H       0.635808   -2.885653   -1.037098
H       3.128623   -2.361091   -0.624270
H       2.728550   -0.588643   -0.746025
H       1.667862   -2.584772    1.434383
H       2.520615    0.787784    1.509989
H       1.150433    1.256709    2.525188
H       2.145652   -0.138100    2.974936
H      -0.622327   -0.391945    2.689918
