20

O       0.636005    1.122185    1.727000
C       0.371229    1.580123    0.635962
N       1.251618    1.708192   -0.395190
C       2.585533    1.187363   -0.336148
C       3.679967    1.919881   -1.074608
C       3.652578    1.927091    0.424721
C       3.397467    3.088810    1.390164
C       3.975157    2.190836    2.522988
C       4.586332    1.255633    1.437779
H      -0.635669    1.958690    0.365404
H       0.889667    2.011533   -1.286398
H       2.643885    0.100702   -0.306455
H       4.427158    1.325681   -1.591023
H       3.409176    2.841381   -1.582744
H       4.036201    3.950993    1.171342
H       2.366390    3.429878    1.499833
H       4.666498    2.655668    3.228626
H       3.172073    1.693382    3.069213
H       4.473811    0.177241    1.579420
H       5.640559    1.477872    1.241188
