18

C      -0.075920    1.496802   -0.026721
C       0.023698   -0.009949    0.006709
O      -1.242787   -0.593603   -0.422294
C      -1.571725   -1.478827    0.555965
N      -0.820831   -1.645372    1.568609
C       0.314631   -0.746482    1.347414
C       1.600285   -1.335563    0.728879
C       1.295058   -2.122449   -0.507550
C       1.286734   -0.625423   -0.608731
H       0.854038    1.943011    0.339050
H      -0.245814    1.852734   -1.048071
H      -0.900646    1.844068    0.602276
H      -2.509567   -1.997332    0.382909
H       0.499104   -0.114538    2.219416
H       2.549125   -1.415439    1.244328
H       2.156557   -2.595323   -0.968098
H       0.379736   -2.698624   -0.595984
H       1.957866   -0.090183   -1.270291
