18

O      -0.089666   -0.003714   -0.143425
C      -0.043931    1.176672    0.046762
C      -1.101745    2.248749    0.351650
C       0.064567    3.207673    0.764927
C       1.102754    2.190414    0.183577
C       0.057776    4.598719    0.193051
C      -0.612952    5.730610    0.931483
C       0.891227    5.690800    0.816793
H      -1.616240    2.574607   -0.559961
H      -1.855567    1.989805    1.099320
H       0.149001    3.257267    1.855177
H       1.946473    1.889196    0.809449
H       1.489620    2.492421   -0.796755
H      -0.024179    4.628367   -0.892083
H      -1.154930    6.473238    0.356686
H      -1.052693    5.512797    1.899455
H       1.460477    5.446282    1.707831
H       1.378157    6.406198    0.163545
