17

C      -0.452147    1.309397   -0.217648
C      -0.311723   -0.138081   -0.160304
C      -0.194714   -1.336258   -0.104335
C      -0.081838   -2.763590   -0.061370
C      -0.253817   -3.518611    1.253727
C      -1.314530   -3.621071    0.213826
O      -2.535511   -2.995584    0.518766
C      -3.167086   -2.368263   -0.504595
O      -4.224120   -1.833780   -0.364342
H       0.090078    1.796620    0.600193
H      -0.061257    1.707887   -1.160243
H      -1.504228    1.604967   -0.143078
H       0.621937   -3.198292   -0.766202
H       0.378822   -4.378757    1.438010
H      -0.496157   -2.919810    2.123131
H      -1.423186   -4.546390   -0.344913
H      -2.602715   -2.421950   -1.452344
