18

C       0.017464    1.531498   -0.120327
C      -0.003519    0.018757    0.025087
C      -1.136633   -0.636058   -0.576604
N      -2.045789   -1.167248   -1.057411
C       1.319604   -0.756635   -0.014222
O       2.489582   -0.024912   -0.140030
C       0.554211   -0.685244    1.278870
C       1.150885    0.103492    2.431217
O       2.527474   -0.236446    2.658450
H       1.021418    1.912424    0.071402
H      -0.250006    1.806432   -1.143927
H      -0.694483    2.013186    0.556349
H       1.308818   -1.695815   -0.563852
H       2.932849   -0.058323    0.722560
H       0.021264   -1.587262    1.563814
H       1.158157    1.175104    2.227584
H       0.562013   -0.051149    3.343510
H       2.567399   -1.160937    2.926324
