16

O      -0.351290    1.516446   -1.128839
C       0.307560    1.055589   -0.234008
C       1.171344    1.911717    0.704052
O       1.808075    1.349853    1.567171
C       1.193222    3.390437    0.433219
C       2.096045    4.308893    1.287694
N       2.866650    4.782147    0.078195
C       3.502693    3.578270   -0.483303
C       2.070643    3.807521   -0.764448
H       0.353016   -0.028638    0.001895
H       0.173077    3.761331    0.317481
H       1.563424    5.143945    1.744022
H       2.711845    3.806836    2.038239
H       4.203853    3.804410   -1.280252
H       3.812028    2.779704    0.187570
H       1.687139    4.060727   -1.746231
