20

C       0.001081    1.525010    0.074942
C       0.046596    0.008415   -0.008613
C       0.742202   -0.521695   -1.268745
C       0.910448   -2.037487   -1.148344
O       1.547379   -2.372919    0.075492
C       0.841062   -1.866943    1.185178
C       1.586965   -2.257958    2.442271
O       0.739888   -0.462426    1.147376
H       1.014589    1.937456    0.065985
H      -0.551295    1.939426   -0.773980
H      -0.489400    1.841853    0.999384
H      -0.983717   -0.391395    0.015346
H       0.160168   -0.270944   -2.162928
H       1.727570   -0.050578   -1.358089
H      -0.075178   -2.531498   -1.205526
H       1.536547   -2.443067   -1.947552
H      -0.182648   -2.294073    1.174260
H       2.588690   -1.821944    2.421142
H       1.055716   -1.887878    3.321930
H       1.672888   -3.345196    2.502300
