16

O       0.234189    1.333946    0.308004
C       0.095566   -0.045539    0.024480
C      -1.404617   -0.496210   -0.125741
N      -1.435522   -1.563967   -1.162678
C      -0.280081   -1.363292   -1.930073
C       0.334482   -1.756158   -3.096640
N       1.564764   -1.137572   -3.062245
N       1.777468   -0.386957   -1.964477
C       0.645717   -0.527257   -1.285776
H       0.164334    1.807974   -0.527959
H       0.563073   -0.558453    0.872890
H      -1.825734   -0.861685    0.813916
H      -1.975653    0.391188   -0.435570
H      -2.305554   -1.605251   -1.677245
H       0.041028   -2.380623   -3.923929
H       2.277079   -1.171013   -3.771024
