15

C       0.039768    1.493925    0.111742
O       1.347795    2.078232   -0.038771
C       2.157224    1.422708   -0.892317
N       3.209326    1.991439   -1.446544
N       3.774044    0.965758   -2.145989
C       3.098350   -0.203685   -2.039371
C       2.020333    0.045746   -1.213025
C       0.940477   -0.706669   -0.615652
C       0.010029   -0.015570    0.055106
H      -0.323232    1.856838    1.077454
H      -0.622767    1.916571   -0.663467
H       4.591834    1.156954   -2.696619
H       3.428142   -1.098935   -2.543050
H       0.910506   -1.789062   -0.683311
H      -0.823089   -0.505023    0.548192
