16

O      -0.062538    1.482884   -0.153618
C      -0.106218    0.101938    0.030790
C      -0.478148   -0.650888    1.271147
C      -1.682707   -0.135789    2.091775
C      -2.326935    1.128562    1.575311
C      -2.570483   -0.172653    0.865394
C      -1.387834   -0.685923   -0.012388
C      -1.564652   -1.759138   -0.930801
N      -1.721636   -2.636337   -1.671317
H       0.712255    1.817028    0.313016
H       0.672017   -0.429971   -0.522008
H       0.139240   -1.468166    1.623491
H      -1.894593   -0.535921    3.073667
H      -3.175115    1.445298    2.176152
H      -1.759072    1.926147    1.122806
H      -3.548861   -0.620548    0.760858
