13

O       0.005629    0.059440    0.524147
C      -0.013761    1.149753    0.049316
O      -1.175377    1.797559   -0.224365
C      -1.110973    3.094636   -0.790167
C      -0.065716    3.352397   -1.904270
O      -0.078248    4.774992   -1.530304
C      -0.053118    4.080399   -0.233889
C       1.013797    3.120531   -0.817481
O       1.124307    1.825581   -0.253934
H      -2.124229    3.460133   -0.941831
H      -0.076058    3.087921   -2.959417
H      -0.048620    4.673286    0.678171
H       2.013615    3.510561   -0.995017
