16

C       0.016774   -1.222763    0.161457
C      -0.007195   -0.036215   -0.024276
C      -0.029158    1.404413   -0.231441
C       1.346641    2.052283   -0.061646
O       2.231607    1.651683   -1.094470
C       2.904642    2.808983   -1.583201
C       2.459888    3.921413   -0.622824
O       1.204158    3.448893   -0.158787
H       0.037716   -2.272819    0.316314
H      -0.388929    1.649689   -1.236766
H      -0.709552    1.880456    0.484550
H       1.785359    1.776057    0.913534
H       3.987399    2.644679   -1.571407
H       2.588791    3.009871   -2.614571
H       3.167158    4.035873    0.212223
H       2.311743    4.891277   -1.101643
