18

C      -0.052364    1.025896   -0.722810
C      -0.029423   -0.379463   -0.359678
C      -0.008856   -1.550714   -0.054987
C       0.014297   -2.866830    0.287442
C       0.045244   -4.036784    0.603419
C       0.058293   -5.457607    0.956709
N      -0.782213   -6.360491    0.159303
C      -2.069014   -5.872651   -0.326125
C      -0.935686   -6.096238   -1.267620
H       0.889730    1.330477   -1.192546
H      -0.861396    1.237559   -1.431135
H      -0.206926    1.660179    0.157419
H       1.087304   -5.834185    0.893989
H      -0.249333   -5.570425    2.004198
H      -2.886942   -6.584419   -0.261526
H      -2.336010   -4.837745   -0.124440
H      -0.463884   -5.207091   -1.679698
H      -0.907868   -6.974864   -1.905615
