20

C      -0.098388    1.513782    0.069144
C       0.004963    0.014738   -0.001988
C      -0.020837   -0.665785   -1.152335
C       0.079461   -2.171117   -1.222522
C       0.955945   -2.739880   -0.090765
C       0.599026   -2.143560    1.270015
C       1.469826   -1.068680    1.877504
C       0.115216   -0.714096    1.293986
H       0.776892    1.946892    0.569749
H      -0.181631    1.960830   -0.925463
H      -0.973966    1.823408    0.654898
H      -0.122485   -0.125118   -2.091006
H      -0.927553   -2.612004   -1.171724
H       0.486358   -2.475612   -2.193562
H       0.863726   -3.830620   -0.055835
H       2.005114   -2.527001   -0.325972
H       0.121584   -2.822790    1.969254
H       1.587722   -1.038441    2.955689
H       2.350367   -0.767693    1.318161
H      -0.651466   -0.460987    2.023591
