17

O      -0.047009    1.417069   -0.000808
C       0.004927    0.020041   -0.013148
C       0.432129   -0.717881   -1.318704
C      -0.908487   -1.521412   -1.289478
C      -1.336318   -0.765342    0.004067
C      -0.921412   -1.373515    1.365215
N       0.357290   -2.102303    1.163599
C       0.371292   -0.634541    1.351786
H       0.858022    1.749986    0.001678
H       0.502325   -0.020281   -2.157318
H       1.342762   -1.315617   -1.254899
H      -1.561248   -1.323406   -2.142233
H      -0.789201   -2.597881   -1.166121
H      -2.279313   -0.219966    0.010172
H      -1.570495   -1.635618    2.192228
H       0.607151   -2.524409    2.057288
H       0.933011   -0.173762    2.157240
