14

N      -0.070592    1.223239   -0.021295
C      -0.065399   -0.035281   -0.006802
O       1.041701   -0.864585   -0.026179
C       0.418601   -2.183984    0.005489
C      -0.711892   -2.038341   -1.037661
C      -1.218262   -1.007330    0.034717
C      -0.655790   -2.013462    1.102757
H       0.884755    1.585550   -0.050547
H       1.190887   -2.949424   -0.005857
H      -0.438181   -1.664226   -2.026038
H      -1.353298   -2.918058   -1.109162
H      -2.220405   -0.590214    0.056136
H      -1.292033   -2.890891    1.228170
H      -0.330910   -1.616658    2.066483
