23

C       0.054192   -0.474661   -2.468692
C      -0.092623   -0.124969   -0.984882
C      -1.128677   -0.982491   -0.262637
C      -0.824848   -2.480945    0.066433
C      -1.296463   -2.279810    1.549965
C      -2.715539   -2.804456    1.808316
C      -0.330985   -2.707906    2.652955
C      -1.299607   -0.764418    1.249121
O      -1.301506    0.210431    1.947173
H       0.807812    0.155945   -2.950457
H       0.357494   -1.518409   -2.604386
H      -0.891790   -0.333178   -3.003188
H       0.876379   -0.232998   -0.480680
H      -0.376783    0.927862   -0.872323
H      -2.103325   -0.882460   -0.759028
H      -1.377749   -3.224882   -0.510274
H       0.243672   -2.705705    0.000003
H      -2.715016   -3.899794    1.838357
H      -3.096249   -2.436459    2.766302
H      -3.415009   -2.491726    1.026012
H       0.682396   -2.340226    2.463418
H      -0.653436   -2.311236    3.620835
H      -0.286411   -3.800123    2.729417
