22

C      -0.123107    1.548689   -0.008087
C       0.004629    0.023234    0.016240
C       0.722488   -0.478427   -1.232738
O       0.926355   -1.897115   -1.249902
C       1.399252   -2.523342   -0.126792
N       2.145832   -3.542025   -0.218971
C       0.878017   -2.026602    1.211570
C       1.680859   -2.580040    2.389760
C       0.766060   -0.492734    1.240106
H       0.862753    2.027611   -0.020284
H      -0.672782    1.891963   -0.891019
H      -0.655537    1.908539    0.877653
H      -1.002585   -0.416446    0.024620
H       0.151889   -0.261005   -2.139855
H       1.700137    0.019637   -1.322900
H       2.349192   -3.730271   -1.203171
H      -0.149063   -2.419295    1.275642
H       2.713011   -2.217346    2.362059
H       1.229782   -2.261050    3.335199
H       1.716074   -3.669667    2.361286
H       1.772035   -0.048561    1.258029
H       0.270312   -0.180870    2.166379
