19

N       0.632765    0.115810   -0.922031
C      -0.103209    0.220707    0.216192
O       0.240719    0.853922    1.199094
C      -1.394817   -0.557336    0.189860
C      -2.500600   -0.149350    1.150805
C      -3.450517   -1.367972    1.206609
C      -2.556291   -2.594950    0.906277
C      -1.433812   -2.049709    0.039785
N      -1.772469   -1.181870   -1.093405
H       1.474562    0.660832   -0.999890
H       0.206188   -0.293251   -1.738288
H      -2.035397    0.052405    2.119640
H      -3.011346    0.769243    0.843280
H      -3.962164   -1.452558    2.167990
H      -4.237049   -1.276642    0.449620
H      -2.117966   -2.994125    1.828452
H      -3.105471   -3.414645    0.430247
H      -0.527699   -2.633396   -0.092152
H      -2.776072   -1.131989   -1.250406
