20

C      -0.294150    1.602918    0.052814
C      -0.037505    0.107620    0.229620
C       0.563218   -0.589204   -1.020401
C       1.534011   -1.690015   -0.473017
C       1.289605   -1.714407    1.060836
C       0.931121   -0.256147    1.368287
O       2.072701    0.589040    1.254267
C       1.363608   -2.993907   -1.102948
N       1.217939   -4.029025   -1.597500
H       0.640394    2.134759   -0.141100
H      -0.975393    1.782602   -0.785014
H      -0.748286    2.035270    0.950465
H      -0.986794   -0.386040    0.472237
H      -0.215649   -1.021160   -1.651957
H       1.122509    0.120789   -1.634269
H       2.563857   -1.368164   -0.649800
H       0.444732   -2.366838    1.304266
H       2.159780   -2.074947    1.617141
H       0.462585   -0.141532    2.355867
H       2.691228    0.356183    1.953498
