23

C       0.050999    1.619355    0.006510
C       0.043169    0.088467    0.046426
C       0.600655   -0.540353   -1.236979
C       0.614678   -2.081032   -1.244543
C      -0.798460   -2.658507   -1.458557
O      -0.943092   -4.000655   -1.043575
C       1.609341   -2.575999   -2.326925
C       1.731798   -4.025739   -2.457711
C       1.841990   -5.218837   -2.575213
H       1.065876    2.007158   -0.136459
H      -0.565182    1.997542   -0.816827
H      -0.339644    2.043899    0.936382
H       0.637594   -0.259597    0.901109
H      -0.979649   -0.262531    0.227250
H       0.025563   -0.180609   -2.103119
H       1.623998   -0.170624   -1.386758
H       0.963914   -2.442156   -0.268926
H      -1.521401   -2.088836   -0.866513
H      -1.082243   -2.525344   -2.518207
H      -0.307344   -4.530149   -1.539833
H       1.309001   -2.157750   -3.297930
H       2.602574   -2.161385   -2.113556
H       1.953235   -6.270030   -2.679459
