21

C      -0.146849    1.442770    0.023501
C      -0.102402   -0.009786    0.101237
C      -0.073144   -1.211111    0.161914
C      -0.014974   -2.663875    0.244859
O      -1.192466   -3.223898   -0.327830
C      -1.336947   -4.604940   -0.114764
C      -0.380333   -5.482424   -0.893755
C      -1.822244   -5.031466    1.251354
C      -2.762892   -5.027269    0.060448
H       0.721189    1.841781   -0.512738
H      -1.045337    1.778216   -0.506102
H      -0.161307    1.897375    1.020198
H       0.883567   -3.027564   -0.277554
H       0.079423   -2.979719    1.295990
H       0.658788   -5.338800   -0.578162
H      -0.623312   -6.538820   -0.748641
H      -0.445640   -5.258404   -1.963594
H      -1.490114   -5.983695    1.651109
H      -1.966985   -4.253502    1.992606
H      -3.506749   -4.240344    0.021512
H      -3.075034   -5.976324   -0.361472
