24

C      -0.182688    1.533379   -0.046925
C       0.072435    0.016127   -0.039624
C       0.780546   -0.375670   -1.344037
O      -0.129415   -0.141308   -2.414588
C       0.791064   -0.518248    1.242528
C       0.087117    0.028344    2.501029
C       0.698136   -2.058146    1.293705
C       2.275963   -0.105859    1.286421
H       0.743449    2.101937    0.097362
H      -0.603048    1.821218   -1.013174
H      -0.887308    1.837100    0.730594
H      -0.907786   -0.479621   -0.077706
H       1.692722    0.228235   -1.470672
H       1.083965   -1.431655   -1.326925
H       0.339748   -0.282039   -3.241684
H      -0.986499   -0.191014    2.483017
H       0.505640   -0.435949    3.400623
H       0.207845    1.110060    2.603542
H       1.217455   -2.538306    0.459587
H       1.149874   -2.437230    2.216923
H      -0.345613   -2.390649    1.273919
H       2.399522    0.980258    1.231037
H       2.735181   -0.439928    2.223319
H       2.848280   -0.552097    0.466784
