21

C      -0.053551    1.606845   -0.024829
C       0.086433    0.094488    0.017390
C       1.094123   -0.619479   -0.929966
C       1.387880   -1.626067    0.216461
C       2.808488   -2.088994    0.501052
O       3.620169   -1.013569    0.961155
C       3.015226   -0.369843    2.048045
O       1.837100    0.301805    1.687708
C       0.817959   -0.572330    1.213712
H       0.912779    2.088786    0.141018
H      -0.439200    1.929682   -0.998036
H      -0.746014    1.966620    0.744195
H      -0.896200   -0.381863   -0.081416
H       0.713253   -1.022430   -1.871185
H       1.964432    0.010103   -1.133286
H       0.718212   -2.489607    0.155880
H       2.798581   -2.888844    1.261390
H       3.293421   -2.482810   -0.397583
H       2.808460   -1.103029    2.851903
H       3.713589    0.390561    2.403227
H       0.216756   -0.932366    2.059996
