14

O       0.090745    0.290710    0.947173
C      -0.017889    1.209709    0.177537
C      -1.312083    1.987455   -0.028206
C      -1.225963    2.883710   -1.258481
O      -0.084566    3.753667   -1.193829
C       1.129882    3.209278   -0.922253
O       2.104177    3.903928   -0.881441
C       1.142968    1.705776   -0.682150
H      -2.150700    1.288460   -0.095767
H      -1.474158    2.600481    0.867330
H      -1.181471    2.289324   -2.180443
H      -2.087610    3.548867   -1.331710
H       2.100433    1.408733   -0.256837
H       1.042888    1.212944   -1.661364
