18

C      -0.141483    1.517851   -0.059883
C       0.087517    0.022923   -0.015746
O       1.230512   -0.432684   -0.808227
C       1.725398   -1.169098    0.308849
C       2.102530   -0.251185    1.427777
C       0.646781   -0.662419    1.237715
C      -0.178894   -1.317399    2.300164
O      -0.821648   -0.370244    3.147567
H       0.730625    2.069762    0.300589
H      -0.351277    1.842069   -1.083998
H      -1.001591    1.773841    0.567455
H      -0.809178   -0.509770   -0.361343
H       2.135790   -2.156695    0.130959
H       2.587563   -0.726509    2.276394
H       2.450926    0.752008    1.201493
H      -0.991668   -1.898576    1.849985
H       0.442182   -2.019773    2.879269
H      -0.133326    0.188958    3.523478
