19

O      -0.977181    1.527246    0.523743
C       0.043681    1.024349    0.127315
C       1.347612    1.763451   -0.031580
C       1.532756    3.055626    0.811566
C       1.766925    3.885702   -0.480280
C       1.515206    2.623091   -1.352802
C       2.729715    1.983517   -2.031826
C       3.442502    1.278415   -0.867664
O       2.400005    0.821432   -0.007800
H       0.097786   -0.041411   -0.186938
H       0.620154    3.315357    1.350924
H       2.368290    3.001022    1.512400
H       1.049884    4.692862   -0.640854
H       2.774419    4.298748   -0.583563
H       0.640285    2.681233   -2.001213
H       2.404853    1.247200   -2.773492
H       3.369717    2.715017   -2.533649
H       4.031988    0.408524   -1.167497
H       4.106282    1.973733   -0.331868
