18

O      -0.510028    0.466597    0.463421
C       0.270395    0.905916   -0.340861
C       1.280370    2.002355   -0.051650
C       1.244164    3.094246   -1.085046
C       0.034765    3.895230   -1.548617
C       0.880115    4.144529   -2.810654
C       2.067095    5.021506   -2.367497
C       2.474915    3.788964   -1.583224
N       1.720200    2.859462   -2.498645
H       0.309466    0.522287   -1.384111
H       1.102086    2.392671    0.955569
H       2.275826    1.536164   -0.065512
H      -0.814365    3.238059   -1.756150
H      -0.300423    4.756948   -0.961771
H       0.421972    4.254643   -3.791046
H       2.760399    5.203554   -3.192432
H       1.859187    5.958016   -1.839612
H       3.459585    3.528031   -1.210122
