19

C      -0.129849    1.604755   -0.023394
C       0.014889    0.091318    0.001325
O      -1.296714   -0.443501   -0.030710
C       0.915901   -0.515107   -1.085113
C       2.327799   -0.628425   -0.504698
C       2.280737   -0.079360    0.918615
C       0.829137   -0.508582    1.188559
O       0.835754   -1.910693    0.839059
C       1.387886   -1.807844   -0.471358
H       0.834097    2.109765   -0.111442
H      -0.745616    1.893724   -0.879823
H      -0.634789    1.954921    0.882320
H      -1.202332   -1.383829    0.170654
H       0.710166   -0.396846   -2.140306
H       3.216631   -0.612271   -1.120916
H       2.986493   -0.581486    1.586563
H       2.427380    1.000265    0.989064
H       0.412303   -0.378598    2.184962
H       1.526049   -2.751885   -0.977976
