16

C      -0.379519    1.057765    0.057441
C       1.130393    0.993274    0.188041
C       0.351318   -0.239223   -0.121464
O       0.290490   -1.194019    0.927869
C      -0.824943   -1.922660    0.999022
C      -1.606042   -2.314022    2.034178
N      -2.597750   -3.162414    1.546057
C      -2.374422   -3.227195    0.278593
O      -1.300882   -2.502396   -0.145296
H      -0.951323    1.175693    0.970783
H      -0.815341    1.526197   -0.817705
H       1.747790    1.419624   -0.594117
H       1.543000    1.066447    1.187507
H       0.417186   -0.690247   -1.105899
H      -1.522525   -2.056018    3.076143
H      -2.922698   -3.762144   -0.480133
