17

C      -0.122864   -3.880606   -0.403312
C      -0.080174   -2.682166   -0.259943
C      -0.032171   -1.332171   -0.098390
C       0.013731   -0.130834    0.047262
C       0.081661    1.306018    0.221583
C      -0.474623    1.831952    1.582774
C       0.539863    2.934020    1.983308
O       1.390046    3.135859    0.859776
C       1.521814    1.883192    0.225303
H      -0.160166   -4.933977   -0.529549
H      -0.466507    1.791672   -0.593957
H      -1.487523    2.220517    1.463245
H      -0.508824    1.031489    2.324058
H       0.072440    3.892838    2.220473
H       1.130803    2.613401    2.854272
H       2.194421    1.211239    0.782111
H       1.926961    2.041832   -0.776035
