17

C      -0.425140    1.568784   -0.297131
C       0.020355    0.192471    0.198237
N       0.741714   -0.509111   -0.874299
C       1.946070   -1.277203   -0.811759
C       1.974425   -2.350694    0.350841
O       0.780311   -2.225195    1.130088
C       0.720092   -2.925293   -0.116954
C       0.647531   -1.872057   -1.296037
H       0.436621    2.173186   -0.596886
H      -1.085743    1.476027   -1.164763
H      -0.964861    2.105648    0.490681
H       0.665779    0.293764    1.075186
H      -0.845034   -0.398113    0.511588
H       2.827031   -0.974691   -1.368279
H       2.843145   -2.803300    0.812782
H       0.352782   -3.944115   -0.115987
H       0.324592   -2.121031   -2.301544
