19

C       0.100955    1.646137   -0.015740
C       0.009291    0.118933    0.053799
N       0.692404   -0.514072   -1.092168
C       1.398028   -1.731997   -0.655811
C       2.763268   -1.868670   -1.352701
C       1.497831   -1.512980    0.846093
C       0.732736   -0.497253    1.224287
C       0.594720   -2.955981   -0.920129
N      -0.051870   -3.886933   -1.151791
H       1.146987    1.963432   -0.042516
H      -0.393088    2.019999   -0.917862
H      -0.388738    2.104259    0.850245
H      -1.058325   -0.160163    0.106029
H       0.075415   -0.684940   -1.876084
H       3.353341   -0.974329   -1.141629
H       3.299207   -2.753951   -0.997578
H       2.633309   -1.956874   -2.434773
H       2.109385   -2.149253    1.472274
H       0.611263   -0.133708    2.237459
