14

O       0.222283    1.340306   -0.373472
C       0.007225    0.010237   -0.075785
C      -0.493222   -0.961352   -1.143801
C      -1.326935   -0.688990    0.072148
O      -1.275558   -1.650627    1.104068
C       0.059104   -1.762027    1.585184
C       0.833784   -0.577850    1.009256
O       1.864869   -0.096668    1.416800
H       1.058861    1.568841    0.059531
H      -0.799024   -0.460707   -2.056482
H      -0.025548   -1.931527   -1.276641
H      -2.281156   -0.180870    0.005789
H       0.060303   -1.718671    2.678656
H       0.519482   -2.713168    1.281211
