20

C      -0.216155    1.536905    0.109374
C      -0.017079    0.040126   -0.003840
C       0.663922   -0.619607   -1.189957
C       1.307022    0.208329   -2.300993
C       2.750525    0.581261   -1.952543
O       2.838970    1.131462   -0.648002
C       2.612656    0.154602    0.357922
C       1.323812   -0.629267    0.178882
H       0.660390    2.091221   -0.230218
H      -1.081461    1.863197   -0.479570
H      -0.404910    1.820467    1.150909
H      -0.852843   -0.533342    0.391254
H       0.223622   -1.556211   -1.516987
H       1.301332   -0.359512   -3.237575
H       0.733704    1.123514   -2.487853
H       3.400310   -0.307107   -2.026932
H       3.140756    1.343168   -2.633842
H       3.457097   -0.556262    0.370843
H       2.623920    0.699554    1.308261
H       1.326510   -1.572683    0.718377
