15

N       0.009690    1.356985    0.284538
C      -0.072118    0.014765    0.106167
N      -1.125698   -0.713578    0.167089
C      -0.772664   -2.114437   -0.079200
C       0.781382   -2.223047   -0.135931
C       1.324557   -3.033229   -1.207644
C       1.756707   -3.699883   -2.108962
C       1.197853   -0.740588   -0.181258
O       2.276913   -0.253063   -0.389445
H       0.870042    1.791787   -0.009993
H      -0.834256    1.903253    0.233989
H      -1.195167   -2.745979    0.708543
H      -1.215813   -2.442846   -1.025381
H       1.150070   -2.597885    0.829857
H       2.146669   -4.289262   -2.901487
