16

O      -0.121455    0.088043   -0.393020
C      -0.037155    1.227560   -0.059864
O      -1.013938    2.032872    0.461713
C      -0.100224    3.180368    0.540296
C       1.040004    2.320290   -0.015902
C       2.402693    2.138421    0.693483
C       3.040025    2.477436   -0.651242
C       2.517345    1.619205   -1.729003
N       1.688076    2.769898   -1.292463
H      -0.426647    3.985088   -0.120374
H       0.000357    3.523404    1.572116
H       2.563655    2.904427    1.454894
H       2.626672    1.155888    1.116856
H       3.883673    3.143665   -0.794505
H       2.924043    1.766750   -2.724175
H       2.164510    0.613803   -1.518677
