16

O       0.077652    1.364252   -0.372107
C       0.089036    0.040301    0.132478
C      -1.301654   -0.495363    0.281167
C      -2.389593   -0.161847    1.314762
C      -2.972073   -1.604329    1.118406
C      -1.864130   -1.858804    0.082010
O      -1.987259   -0.852275   -0.931176
C      -1.231534   -3.094270   -0.263066
N      -0.730943   -4.108458   -0.505304
H      -0.299468    1.330002   -1.258431
H       0.669003   -0.642956   -0.504209
H       0.575830    0.088682    1.111502
H      -1.990592   -0.003866    2.318577
H      -3.035480    0.672847    1.039314
H      -2.871214   -2.227494    2.008321
H      -3.983990   -1.685668    0.718650
