19

O      -0.069166    1.392894    0.066355
C      -0.002713   -0.000160    0.014649
C      -0.434280   -0.724882   -1.235592
C      -1.282838   -0.798090    0.024174
C      -1.091288   -2.010585    0.921900
C       0.426306   -2.106069    1.084173
C       1.108075   -3.198065    1.779435
O       1.080335   -3.155772    0.349885
C       1.003065   -0.704319    0.918309
H       0.640022    1.745065   -0.482374
H      -0.824977   -0.099414   -2.030707
H       0.109933   -1.604784   -1.563846
H      -2.234698   -0.280533    0.019571
H      -1.568226   -1.836083    1.894323
H      -1.490328   -2.942886    0.510985
H       2.083570   -3.026652    2.234235
H       0.523715   -3.997154    2.235492
H       2.021199   -0.747410    0.518561
H       1.029944   -0.175742    1.879038
