22

C       0.224388    1.331519   -0.617818
C       0.013169   -0.070567   -0.033776
C       0.613613   -0.155435    1.397998
C       2.056326    0.070886    1.431236
N       3.198501    0.249193    1.437937
C      -1.441955   -0.562764   -0.002385
C      -1.578323   -2.073033    0.111835
C      -2.495620    0.271758    0.692963
C      -2.513941    0.133312   -0.809621
H       1.279466    1.612428   -0.555118
H      -0.065757    1.368895   -1.670368
H      -0.351349    2.091717   -0.077718
H       0.577517   -0.774709   -0.658806
H       0.128532    0.584807    2.044860
H       0.415739   -1.136034    1.841495
H      -1.104443   -2.469021    1.017329
H      -2.630942   -2.369504    0.144761
H      -1.118411   -2.574373   -0.747794
H      -3.253794   -0.242606    1.274024
H      -2.211644    1.237112    1.099186
H      -2.256818    1.006015   -1.396581
H      -3.280613   -0.488542   -1.259544
