18

C      -0.058296    1.553986    0.004361
C      -0.006588    0.019158    0.002993
C      -1.327691   -0.547204   -0.242982
N      -2.363318   -1.024705   -0.436068
C       1.143459   -0.563406   -0.891095
O       1.532606    0.297670   -1.926939
C       2.038124   -0.678553    0.372548
C       0.753414   -0.578469    1.238561
O       0.748071    0.267385    2.356769
H       0.931062    1.974128    0.188693
H      -0.411425    1.915000   -0.963089
H      -0.732504    1.902631    0.788505
H       0.861388   -1.551537   -1.274059
H       2.133112   -0.174500   -2.511489
H       2.662370   -1.567984    0.480583
H       2.649270    0.219383    0.490840
H       0.356406   -1.571029    1.483172
H       1.103609   -0.214246    3.109681
