21

C       0.038802    1.565601    0.048568
C      -0.001340    0.034929   -0.013537
C       0.621101   -0.484871   -1.324301
C       0.786438   -2.016638   -1.376384
C       1.225451   -2.645927   -0.064201
C       2.166529   -2.049146    0.954727
O       2.186605   -0.622209    0.940031
C       0.736513   -0.599800    1.166749
C       0.692033   -2.131791    1.254051
H       1.074239    1.922854    0.062366
H      -0.457658    2.010174   -0.820391
H      -0.459102    1.942330    0.948541
H      -1.048568   -0.295972    0.053653
H       0.014429   -0.155611   -2.175379
H       1.602507   -0.014331   -1.431712
H      -0.172667   -2.477709   -1.649990
H       1.488954   -2.278381   -2.176905
H       1.301832   -3.731820   -0.088422
H       3.029073   -2.556567    1.372300
H       0.522498   -0.095407    2.115204
H       0.131748   -2.713195    1.973997
