15

C       0.001828    1.604868   -0.226957
C       0.137360    0.081037   -0.048746
O       0.650964   -0.314371    1.215252
C      -0.061169   -0.075729    2.349998
O       0.334177   -0.441050    3.412792
C      -1.210751   -0.594907   -0.360402
O      -1.848615   -1.211085    0.446420
C       1.146993   -0.464145   -1.070996
O       1.062606   -0.236472   -2.247231
H       0.936295    2.087748    0.070152
H      -0.187251    1.826869   -1.279562
H      -0.813604    2.012855    0.375014
H      -0.989419    0.489765    2.184295
H      -1.537934   -0.451136   -1.409963
H       1.936362   -1.098259   -0.620865
