19

C      -0.628606    1.220834    0.355729
C      -0.074266   -0.151404    0.047386
C       0.731985   -0.464273   -1.205670
C       1.214411    0.624505   -2.159361
C       2.722023    0.808570   -2.034206
O       3.458496    1.007400   -2.969463
C       3.266522    0.711490   -0.605409
O       2.243825    0.638356    0.374420
C       1.394072   -0.452976    0.154336
H       0.125374    1.998363    0.220539
H      -1.491055    1.453596   -0.278138
H      -0.958395    1.269568    1.398512
H      -0.716017   -0.970592    0.361430
H       0.557871   -1.431363   -1.665707
H       0.982830    0.393600   -3.201007
H       0.743013    1.589356   -1.934897
H       3.946537   -0.153354   -0.550127
H       3.856205    1.607691   -0.391702
H       1.730309   -1.381915    0.614677
