21

C      -0.081028    1.564160   -0.009525
C      -0.208965    0.066892    0.201150
C      -1.406224   -0.517903   -0.537840
O      -1.219662   -0.402569   -1.940381
O       1.002298   -0.701073   -0.006897
C       0.460796   -0.617452    1.334742
C       1.305221    0.147725    2.336746
C       0.017506   -1.972634    1.871864
O       1.143272   -2.816957    2.058937
H       0.907540    1.934310    0.259066
H      -0.262752    1.790505   -1.063524
H      -0.829812    2.098114    0.585978
H      -1.587398   -1.560430   -0.256518
H      -2.308431    0.055703   -0.299882
H      -0.390079   -0.852542   -2.140212
H       1.859869    0.961242    1.870940
H       0.673154    0.562407    3.129801
H       2.018626   -0.540535    2.797747
H      -0.442391   -1.850959    2.858432
H      -0.717879   -2.448887    1.215191
H       1.585317   -2.870951    1.203194
