21

C       0.039772    1.298582   -0.381112
C       0.279831   -0.120666    0.065291
O       1.629551   -0.522489    0.410519
C       0.614779   -0.562612    1.431477
C       0.867130    0.425594    2.574540
O       1.696542    1.505144    2.204265
C       0.213140   -1.935539    1.894342
C       0.469372   -3.147174    1.040257
C       1.276543   -2.929531    2.295857
H       0.443105    1.449167   -1.388499
H      -1.038991    1.485086   -0.428892
H       0.492565    2.019303    0.298942
H      -0.213638   -0.872175   -0.553561
H      -0.085357    0.838339    2.928923
H       1.308908   -0.138835    3.411235
H       2.310305    1.141551    1.550859
H      -0.697263   -1.938591    2.489135
H      -0.276487   -3.933816    1.029273
H       0.982368   -2.986737    0.098987
H       2.310640   -2.628510    2.168115
H       1.091988   -3.565073    3.154469
