18

C       0.525680    1.241077   -1.004460
C       0.007429    0.096620   -0.161512
O       0.926406   -1.001992   -0.010164
C       0.646211   -0.213040    1.143414
C       1.726122    0.599290    1.666210
N       2.571143    1.250671    2.110994
C      -1.425966   -0.265880   -0.413935
C      -2.281087   -1.060528    0.534866
C      -2.542464    0.411308    0.348574
H       1.571176    1.460471   -0.781782
H       0.444380    0.981502   -2.064914
H      -0.070330    2.142048   -0.831146
H       0.076385   -0.717017    1.920608
H      -1.617328   -0.437917   -1.470341
H      -2.975614   -1.767568    0.095945
H      -1.865326   -1.392325    1.478861
H      -2.262615    1.076187    1.159043
H      -3.424324    0.723540   -0.198821
