21

O       0.172417    1.433212    0.014218
C       0.067764    0.027846    0.017245
C       0.220544   -0.616849    1.442333
C      -1.294526   -0.614372    1.491184
C      -2.250110   -0.293724    2.354312
C      -3.652203    0.000732    1.868504
C      -3.831787   -0.194058    0.346229
C      -2.612976    0.275724   -0.475638
C      -1.405103   -0.530386   -0.017298
H      -0.359418    1.769589    0.745449
H       0.744479   -0.324977   -0.763936
H       0.648293   -1.624120    1.385245
H       0.775868   -0.035701    2.184139
H      -2.044099   -0.174426    3.416256
H      -4.382573   -0.618870    2.405566
H      -3.900858    1.036977    2.143506
H      -3.996322   -1.259291    0.139707
H      -4.737477    0.327529    0.019157
H      -2.806522    0.156844   -1.546928
H      -2.428724    1.343583   -0.304689
H      -1.394927   -1.525380   -0.481702
