14

O       0.002316    1.437320    0.009415
C      -0.002696    0.015575    0.002590
C      -1.377758   -0.465779    0.012576
C      -2.504235   -0.893270    0.020608
C      -3.831731   -1.377987    0.030121
C      -4.995381   -0.669594    0.040852
O      -6.032243   -1.552007    0.047289
C      -5.437074   -2.769002    0.039984
N      -4.148514   -2.744469    0.029761
H       0.922433    1.720267    0.002841
H       0.508801   -0.383517   -0.888870
H       0.524607   -0.392093    0.880855
H      -5.238875    0.377966    0.045002
H      -6.090599   -3.627093    0.043373
