21

C      -0.476361    1.195174   -0.277210
N      -0.172847   -0.177630    0.098297
C       1.116753   -0.728931   -0.308938
C       0.830650   -0.460802    1.133173
C       1.564748    0.652989    1.854973
C       0.437521   -1.641032    2.024115
C       1.634909   -2.510066    2.403058
N       1.557062   -3.809068    1.990856
O       2.600514   -2.085335    3.011811
H       0.398353    1.859141   -0.345542
H      -0.966739    1.186225   -1.256177
H      -1.177373    1.624910    0.445799
H       1.102056   -1.741020   -0.708478
H       1.824405   -0.063486   -0.802832
H       1.966763    1.402106    1.169795
H       0.896908    1.158996    2.563056
H       2.390212    0.222727    2.426339
H      -0.000746   -1.264674    2.956297
H      -0.332975   -2.218469    1.506865
H       0.745564   -4.183123    1.533190
H       2.308236   -4.432631    2.238404
