11

N       0.017633    1.355057    0.069556
C       0.015532    0.004712    0.022820
C      -1.181694   -0.756611    0.011348
N      -1.157969   -2.070979   -0.014639
N       0.018262   -2.714241   -0.028436
C       1.092543   -1.945301   -0.016767
F       2.240093   -2.590904   -0.032402
N       1.188975   -0.627231    0.005402
H       0.898143    1.834658   -0.019608
H      -0.831647    1.878845   -0.043093
H      -2.159943   -0.285704    0.023478
