19

C      -0.184401    1.490603   -0.040325
N       0.079628    0.059406    0.070274
C       1.378321   -0.520477   -0.286135
C       2.550056    0.398122   -0.324369
N       3.319019    0.575939   -1.309980
O       2.666938    1.041382    0.884054
C       1.824168    0.426677    1.871949
C       0.884762   -0.517482    1.131474
C       0.328254   -1.708065    1.870582
H       0.643839    2.148710    0.253596
H      -0.443366    1.711167   -1.079589
H      -1.054379    1.726296    0.580486
H       1.372722   -1.372833   -0.955756
H       4.064872    1.231406   -1.068651
H       2.449858   -0.126760    2.582106
H       1.303470    1.222483    2.415667
H      -0.290109   -1.387804    2.717229
H      -0.300748   -2.300578    1.203092
H       1.130215   -2.343651    2.260473
