23

C       0.146781    1.371056   -0.080791
O       0.115991   -0.033206   -0.026491
C       0.663520   -0.552379    1.169175
C       0.614788   -2.064595    1.093336
C       1.564861   -2.808991    0.107072
C       1.929795   -3.828665    1.226320
C       3.265218   -3.547375    1.952549
C       2.542407   -2.516170    2.871948
C       1.164556   -2.923858    2.261335
H       1.175809    1.762226   -0.027096
H      -0.295137    1.673641   -1.033622
H      -0.432290    1.826655    0.738958
H       1.699990   -0.194555    1.292751
H       0.092104   -0.191232    2.043550
H      -0.422934   -2.351678    0.893004
H       1.077739   -3.226354   -0.776298
H       2.416289   -2.208669   -0.230996
H       1.661442   -4.868286    1.033064
H       3.636464   -4.411977    2.509885
H       4.081392   -3.169000    1.328966
H       2.631453   -2.728975    3.939795
H       2.832638   -1.473607    2.719410
H       0.434434   -3.310438    2.974668
