24

C       0.086572    1.381984    0.126424
O      -0.017894   -0.018189    0.023968
C       0.860437   -0.572609   -0.934174
C       0.655201   -2.079115   -0.995979
C       0.342372   -2.786511    0.270930
N      -0.703947   -2.589044   -0.757447
C       1.412844   -2.821974   -2.096042
C       0.925066   -2.432080   -3.499690
C       2.936073   -2.676243   -1.960264
H       1.094749    1.692773    0.441356
H      -0.142741    1.877984   -0.829533
H      -0.635716    1.709573    0.877863
H       0.665747   -0.120698   -1.921022
H       1.905051   -0.339589   -0.671053
H       0.663919   -3.816167    0.405918
H       0.274500   -2.198061    1.180116
H      -1.288287   -1.810512   -0.459178
H       1.159985   -3.879060   -1.950791
H       1.364629   -3.089975   -4.256440
H      -0.163393   -2.518268   -3.563283
H       1.205880   -1.405770   -3.761602
H       3.275688   -2.944583   -0.954384
H       3.450191   -3.327902   -2.674009
H       3.265705   -1.651095   -2.163620
