15

O      -0.010153   -0.103061    0.001356
C       0.027009    1.105686    0.006898
C       1.239801    1.882857   -0.000263
C       2.233109    2.568586   -0.005802
C       3.457928    3.349825   -0.012827
O       3.154266    4.729943   -0.002922
C       4.330787    5.524553   -0.009433
C       3.971346    6.934013    0.001538
C       3.705338    8.104483    0.010345
H      -0.897861    1.716921    0.017958
H       4.068587    3.073063    0.864714
H       4.052598    3.082217   -0.904082
H       4.956211    5.290797    0.869040
H       4.939927    5.300410   -0.901744
H       3.462408    9.138573    0.018166
