12

O      -0.894752    1.190374    0.145758
C       0.226796    0.834056   -0.109073
C       1.414103    1.755833   -0.025738
N       2.567952    1.238411   -0.328942
C       3.695047    2.064088   -0.263269
O       4.822989    1.720498   -0.515545
N       3.423296    3.390952    0.135804
N       2.248274    3.925603    0.446662
C       1.227341    3.119125    0.371195
H       0.488190   -0.194449   -0.425497
H       4.217758    4.015765    0.193780
H       0.249614    3.511090    0.615469
