19

C      -0.029739    1.464377   -0.078460
C       0.028653    0.010187   -0.041687
C       0.081692   -1.193747   -0.017374
C       0.115786   -2.647385    0.011947
C       1.072079   -3.235583   -1.031356
C       0.194738   -3.234389    1.474650
C      -1.328782   -3.553644    1.461287
C      -1.334715   -3.241490   -0.038835
O      -2.085434   -3.461430   -0.940219
H       0.756542    1.877228   -0.720093
H      -0.992261    1.813443   -0.468594
H       0.098810    1.894516    0.920997
H       2.093794   -2.886320   -0.856566
H       1.064579   -4.329355   -0.989120
H       0.768036   -2.929014   -2.035333
H       0.814339   -4.133112    1.511936
H       0.530578   -2.531419    2.235666
H      -1.652778   -4.559271    1.739492
H      -1.928568   -2.828186    2.019952
