17

C      -0.260030    1.470838   -0.023722
N       0.036494    0.044170    0.057131
C       1.363311   -0.450498   -0.303936
C       2.427616    0.457380   -0.654887
N       3.270362    1.191347   -0.955313
C       0.870716   -0.487963    1.139451
C       1.509099    0.409569    2.188604
C       0.438363   -1.770601    1.647442
C       0.105405   -2.834075    2.097081
H       0.586435    2.135908    0.186517
H      -0.617099    1.684054   -1.035104
H      -1.068998    1.692162    0.677486
H       1.367057   -1.374090   -0.876265
H       1.945595    1.310793    1.756998
H       0.763322    0.697441    2.935342
H       2.303096   -0.138605    2.702008
H      -0.200175   -3.773952    2.486371
