17

C       0.011789    1.558151    0.027012
C      -0.017155    0.061380    0.016954
C      -1.104541   -0.752711    0.032371
N      -2.411647   -0.374380    0.103709
C      -0.749716   -2.222090    0.018384
C       0.788402   -2.231222   -0.015041
C       1.198068   -0.746609   -0.016281
O       2.344669   -0.342881   -0.046220
H       1.048743    1.889713   -0.073958
H      -0.565436    1.993878   -0.799484
H      -0.386830    1.977270    0.959618
H      -2.644741    0.588858   -0.077675
H      -3.122175   -1.041692   -0.148282
H      -1.159760   -2.723426    0.903388
H      -1.195293   -2.718134   -0.853545
H       1.229436   -2.731289    0.851857
H       1.192846   -2.722641   -0.904408
