19

C      -0.227854    1.319971    0.024862
O      -0.142692   -0.082649   -0.075993
C       0.788988   -0.506174   -1.045151
C       0.780968   -2.013917   -1.040762
N      -0.088405   -2.700001   -1.997117
C       1.377415   -2.840487   -2.144050
C       2.001025   -2.255523   -3.398312
C       1.961581   -4.098042   -1.721693
N       2.422539   -5.110298   -1.403127
H       0.737883    1.767947    0.308046
H      -0.555070    1.778014   -0.921581
H      -0.963551    1.545871    0.799958
H       0.519940   -0.123310   -2.040615
H       1.799433   -0.134142   -0.800171
H       0.858720   -2.434261   -0.040294
H      -0.497692   -3.536548   -1.588809
H       1.474004   -1.347572   -3.693273
H       3.056985   -2.021335   -3.235333
H       1.932616   -2.971787   -4.221920
