17

C      -0.038573    1.438288   -0.224855
C      -0.112702   -0.032237   -0.012868
C      -1.145622   -0.924877    0.066502
C      -0.476359   -2.160913    0.316827
N       0.822977   -2.031374    0.368197
O       1.058100   -0.672447    0.158928
C      -2.607140   -0.704230   -0.037081
C      -3.193745    0.090071   -1.149910
N      -3.382522   -1.367752   -1.109525
H       0.535963    1.677632   -1.125872
H      -1.041427    1.855003   -0.325897
H       0.458479    1.926125    0.619937
H      -0.914376   -3.140330    0.453973
H      -3.144190   -0.704495    0.909886
H      -4.093740    0.673879   -0.980020
H      -2.517127    0.503723   -1.892324
H      -2.734333   -1.803492   -1.762422
