12

N      -0.039421    1.319460   -0.171527
C      -0.060924    0.059910   -0.011943
N       1.187065   -0.653271    0.193150
N       1.360045   -1.827951    0.359598
O       0.086623   -2.737135    0.360274
C      -1.066330   -2.126761    0.176892
C      -1.237180   -0.787286   -0.010503
C      -2.528817   -0.240587   -0.198397
C      -3.631257    0.215574   -0.357369
H       0.921075    1.663964   -0.128223
H      -1.912546   -2.810213    0.187419
H      -4.598973    0.629642   -0.498530
