15

C       0.024063    1.497946    0.029922
C       0.022251   -0.010376    0.023009
N      -0.049922   -0.624539   -1.160796
C      -0.053304   -1.958784   -1.196173
C       0.015132   -2.749124   -0.053203
C       0.090553   -2.123765    1.184390
C       0.094321   -0.733675    1.226224
O       0.168509   -0.128783    2.444793
H       0.938557    1.907313    0.480436
H      -0.036465    1.857131   -0.997825
H      -0.830149    1.908933    0.585134
H      -0.113330   -2.412901   -2.181671
H       0.009538   -3.830769   -0.129707
H       0.146174   -2.682017    2.112312
H       0.161952    0.826308    2.326547
