21

C      -1.640317    0.660977   -1.830594
C      -2.404609   -0.439194   -1.127024
O      -3.411265   -0.930023   -1.588646
C      -1.831706   -0.935207    0.201010
C      -1.014068   -2.222759    0.013351
O       0.054670   -1.878480   -0.848611
C      -0.662558   -2.912719    1.365414
C      -1.865588   -3.869502    1.147885
C      -1.878936   -3.467411   -0.351906
H      -2.111384    0.899453   -2.784983
H      -1.605548    1.557604   -1.200337
H      -0.606680    0.333346   -1.980833
H      -1.181983   -0.180429    0.655933
H      -2.667713   -1.136145    0.876361
H       0.544234   -2.680895   -1.055232
H       0.294947   -3.438358    1.284674
H      -0.642146   -2.289568    2.263608
H      -1.707898   -4.924378    1.378691
H      -2.763068   -3.534485    1.673746
H      -2.835796   -3.279693   -0.839554
H      -1.299165   -4.168981   -0.961915
