17

C      -0.051937    1.527220    0.101697
C       0.095110    0.039637    0.060951
N      -1.074776   -0.849768   -0.186596
C      -0.620851   -1.751698    0.923141
C      -0.620280   -3.184502    0.605156
N      -0.646968   -4.319289    0.389270
C       0.711892   -1.000789    1.021823
C       1.280056   -0.758579   -0.368577
O       1.232463   -1.676304   -1.404793
H       0.907226    2.002155    0.325975
H      -0.394332    1.908662   -0.867481
H      -0.772672    1.842655    0.865494
H      -1.959601   -0.407115    0.036448
H      -1.211478   -1.608661    1.833631
H       1.287535   -0.897233    1.932674
H       2.227584   -0.226975   -0.344376
H       0.297930   -1.770817   -1.643438
