21

C      -0.268646    1.531649   -0.082316
C      -0.029146    0.022031   -0.016144
C       0.892029   -0.543174   -1.150969
C       1.962264   -1.242728   -0.322252
C       1.318312   -1.873581    0.944124
O       2.516953   -1.597390    1.742256
C       2.300365   -0.378031    0.936223
C       3.275139    0.747038    1.101344
C       0.756788   -0.451500    1.206246
H       0.674280    2.089083   -0.061542
H      -0.793854    1.805278   -1.003576
H      -0.875754    1.875813    0.761927
H      -1.003347   -0.481783   -0.040592
H       0.363552   -1.230572   -1.818918
H       1.310017    0.256240   -1.773344
H       2.777976   -1.778842   -0.807713
H       0.834334   -2.842975    1.068718
H       4.292133    0.398503    0.895437
H       3.045128    1.564351    0.411139
H       3.244940    1.138416    2.122871
H       0.400508   -0.214908    2.209673
