19

O      -0.001699    1.387585   -0.333986
C       0.027018    0.025126   -0.039222
C       0.628888   -0.933584   -1.099849
C      -0.686228   -1.767638   -1.104269
C      -1.329154   -0.803961   -0.054901
C      -1.044309   -1.229247    1.422075
C       0.269037   -0.392701    1.434987
C      -2.613643   -0.237570   -0.357609
C      -3.691763    0.233952   -0.610821
H       0.899131    1.727988   -0.283672
H       0.801230   -0.417105   -2.046832
H       1.542700   -1.459373   -0.809050
H      -1.205493   -1.756993   -2.063213
H      -0.599099   -2.802747   -0.765165
H      -1.799023   -0.866188    2.120598
H      -0.928216   -2.306760    1.561660
H       1.196196   -0.937437    1.634287
H       0.211164    0.468682    2.104213
H      -4.638526    0.658138   -0.835410
