18

C      -0.182783    1.534836    0.013988
C       0.152036    0.042204   -0.090952
C       0.819863   -0.495847    1.163070
C      -0.053480   -0.842879    2.403695
O      -0.598782   -2.015030    1.685953
C       0.856707   -2.032165    1.405587
C       1.075203   -1.796428    2.915263
O       2.325953   -1.312852    3.313699
H       0.715681    2.133802    0.200714
H      -0.641880    1.902625   -0.908731
H      -0.884632    1.728017    0.832650
H      -0.755623   -0.536494   -0.285851
H       0.823291   -0.119896   -0.944415
H       1.753456    0.020408    1.401922
H      -0.759740   -0.226801    2.962729
H       1.236519   -2.831733    0.768176
H       0.696187   -2.611329    3.540856
H       2.295083   -1.134333    4.258530
