17

C      -0.073632    1.564999    0.106144
C      -0.015683    0.056627    0.086290
C      -1.221208   -0.652432   -0.411693
O      -2.222423   -0.109913   -0.811481
C       1.309634   -0.689218   -0.212042
O       2.471085    0.094643   -0.160246
C       2.826207    0.165681    1.214360
O       1.626531    0.035508    1.961578
C       0.762996   -0.729314    1.161662
H       0.926421    1.998500    0.125508
H      -0.592484    1.916735   -0.788588
H      -0.628094    1.924738    0.977187
H      -1.146631   -1.766185   -0.396594
H       1.342428   -1.522165   -0.905402
H       3.526633   -0.646823    1.468587
H       3.272957    1.141742    1.419142
H       0.332970   -1.600439    1.644045
