18

N      -0.128592   -1.105798    0.394300
C      -0.072993    0.017207    0.128376
C       0.019383    1.440026   -0.213992
C       1.435220    1.973606   -0.115944
C       1.994262    2.472715    1.191478
C       1.743522    3.443153    0.062833
C       2.927937    3.721185   -0.845453
O       3.514283    2.447544   -1.100996
C       2.477845    1.474325   -1.108940
H      -0.372706    1.572967   -1.230373
H      -0.644586    1.997670    0.455541
H       1.318629    2.510304    2.039144
H       3.021240    2.222981    1.437844
H       0.957394    4.184605    0.149402
H       2.587483    4.200795   -1.777639
H       3.703227    4.349946   -0.396224
H       2.927242    0.512479   -0.843778
H       2.021667    1.379938   -2.109790
