18

C       1.095661    1.598922   -1.942222
N       1.121714    0.155345   -2.020327
C       0.572529   -0.600576   -1.041244
N       0.011155   -0.081966   -0.012597
N       0.667957   -2.004840   -1.244433
C       1.235445   -2.685075   -2.287948
O       1.778217   -2.203019   -3.261423
O       1.102876   -4.011772   -2.076424
C       1.657862   -4.845855   -3.100414
H       0.068551    1.977660   -1.900509
H       1.614653    1.959382   -1.047321
H       1.589559    2.002312   -2.828588
H       1.546199   -0.323051   -2.800139
H      -0.347930   -0.789354    0.622958
H       0.261959   -2.576130   -0.520754
H       2.731642   -4.671155   -3.201704
H       1.467287   -5.869213   -2.777564
H       1.174568   -4.652265   -4.061000
