18

O      -0.006770   -0.020050   -0.271237
C      -0.021086    1.160513   -0.033625
N      -1.120085    1.913148    0.230547
C      -1.143392    3.372364    0.199844
C      -0.923920    4.006037   -1.187661
C       0.508136    4.013560   -1.741782
O       0.980519    2.727391   -2.140723
C       1.783523    2.076719   -1.205990
O       1.119102    1.944175    0.040528
H      -1.992836    1.414411    0.158661
H      -2.127021    3.672921    0.572764
H      -0.403011    3.754649    0.908452
H      -1.579877    3.517833   -1.918081
H      -1.244221    5.054960   -1.127012
H       0.524804    4.631729   -2.645946
H       1.198246    4.464783   -1.014627
H       2.019627    1.096624   -1.629356
H       2.695132    2.642379   -0.974162
