17

O      -0.032951    0.032022    0.210348
C       0.001414    1.205936   -0.007103
O      -1.136504    1.954599   -0.172611
C      -0.795505    3.278744   -0.541819
C      -0.039425    4.146634    0.438571
C       0.378813    3.541342    1.781431
C       1.512504    2.545576    1.428368
C       1.217048    2.142190   -0.041520
C       0.686224    3.423121   -0.689113
H      -1.518968    3.706279   -1.223902
H      -0.223443    5.212996    0.370101
H       0.720313    4.317667    2.469917
H      -0.461293    3.029081    2.262008
H       2.482418    3.052044    1.460053
H       1.558440    1.681671    2.096870
H       2.059165    1.663673   -0.539802
H       1.172550    3.901907   -1.528405
