16

O      -0.058935    0.035225   -0.029803
C      -0.009945    1.223666    0.008019
O      -1.119554    2.009595    0.175758
C      -0.770400    3.384246    0.110776
C      -1.647517    4.283801   -0.701280
C      -1.658913    4.355694    0.817926
C       0.729522    3.420240    0.066999
C       1.465405    2.740828    1.156568
N       1.172536    2.026717   -0.118719
H      -1.179609    5.088765   -1.258673
H      -2.502733    3.826169   -1.184742
H      -2.523142    3.946399    1.328270
H      -1.199638    5.208489    1.306048
H       1.213715    4.171637   -0.547955
H       2.519130    2.945869    1.310829
H       0.914255    2.436557    2.042094
