19

C      -0.154916    1.486194    0.034037
C       0.045400   -0.033379   -0.044277
C       0.781518   -0.429871   -1.331245
C       0.783110   -0.551563    1.188943
C       0.054936   -0.511242    2.552740
O       0.235600   -1.928315    2.745575
C       0.820505   -2.077698    1.436571
H       0.809999    2.007059    0.047284
H      -0.719074    1.854903   -0.828708
H      -0.701972    1.774937    0.937681
H      -0.947225   -0.507725   -0.059401
H       1.779296    0.023752   -1.365914
H       0.906028   -1.515236   -1.406712
H       0.233971   -0.095156   -2.218210
H       1.779596   -0.099290    1.237692
H       0.527114    0.075121    3.349931
H      -1.008931   -0.238481    2.496594
H       0.177877   -2.666848    0.766276
H       1.809584   -2.548985    1.480141
