18

C       0.319832    1.629941    0.076054
C       0.082016    0.116088   -0.064054
O       0.661357   -0.598518    1.021296
C      -1.421265   -0.212795   -0.183848
C      -2.220274    0.015939    1.072407
O      -1.751338    0.217159    2.171026
C       0.759897   -0.348590   -1.369869
N       1.808064   -1.184852   -1.196226
O       0.356718    0.040827   -2.452200
H       1.387591    1.818005    0.217259
H      -0.010574    2.148573   -0.826870
H      -0.217295    2.027650    0.941002
H       0.163676   -0.339604    1.810104
H      -1.872140    0.338601   -1.015606
H      -1.556605   -1.276140   -0.435361
H      -3.322748   -0.039552    0.941833
H       2.054847   -1.488719   -0.269565
H       2.295081   -1.530960   -2.005494
