16

C       0.256523    1.518587   -0.481516
N       0.059731    0.120723   -0.113673
C       1.239646   -0.716920   -0.008979
C       0.481208   -0.343735    1.223848
C       1.066850    0.553246    2.240434
N       2.168580    1.247745    2.088847
O       2.337073    1.951720    3.247981
N       1.338823    1.688285    4.140867
C       0.554551    0.838421    3.542145
H       1.186011    1.961429   -0.098078
H       0.267363    1.578981   -1.573759
H      -0.589902    2.108482   -0.116530
H       1.150594   -1.725347   -0.404425
H       2.215276   -0.251041   -0.135082
H      -0.208925   -1.067119    1.650969
H      -0.329555    0.456133    4.028707
