20

C      -0.122195    1.547593   -0.060269
C       0.027012    0.029552    0.030280
C       0.930790   -0.601682   -1.103819
C       1.929473   -1.255498   -0.179973
C       3.109093   -2.208667    0.063814
C       2.581429   -1.794957    1.461552
C       2.280063   -0.339041    1.040648
C       0.777417   -0.455396    1.297706
N       1.118964   -1.908096    0.974057
H       0.854948    2.044168   -0.047645
H      -0.630707    1.841608   -0.984258
H      -0.705814    1.939830    0.779734
H      -0.964124   -0.436766    0.009982
H       0.385708   -1.317673   -1.723619
H       1.375926    0.159695   -1.751004
H       2.956282   -3.253643   -0.219046
H       4.102123   -1.850495   -0.218596
H       2.884871   -2.179253    2.436385
H       2.949705    0.528180    1.050070
H       0.305798   -0.245753    2.261515
