16

C      -0.002996    1.520225    0.057016
C       0.019245    0.031646   -0.003243
C       0.034572   -0.820177   -1.080346
O       0.031916   -0.433482   -2.383611
C       0.053686   -2.172920   -0.600050
C       0.049123   -2.094973    0.784403
N       0.028648   -0.778091    1.124362
C       0.072673   -3.307949   -1.435686
C       0.088033   -4.222485   -2.223265
H       0.875837    1.932458    0.569403
H      -0.008945    1.917449   -0.960338
H      -0.893797    1.905856    0.569418
H       0.044969   -1.233694   -2.923079
H       0.058944   -2.877143    1.524736
H       0.021124   -0.431149    2.067336
H       0.101544   -5.046958   -2.891590
