18

O      -0.174188    0.094136    0.295783
C       0.011020    1.256538    0.021936
C       1.324766    1.924240   -0.008371
C       1.345484    3.435297    0.181258
C       1.626285    2.896633   -1.177815
C       3.066519    2.648614   -1.568173
N       4.048042    2.989156   -0.516057
C       3.641550    1.582075   -0.703117
C       2.579484    1.098844    0.278169
H      -0.841012    1.925433   -0.247691
H       0.384930    3.914734    0.344340
H       2.177608    3.844914    0.740105
H       0.900240    3.034978   -1.970830
H       3.346667    2.764250   -2.609218
H       4.960413    3.140430   -0.938849
H       4.379802    0.877445   -1.073534
H       2.913780    1.190152    1.316222
H       2.341866    0.045969    0.099312
