19

C      -1.205217    0.334595    0.558547
C       0.140374   -0.140430    0.036289
O       1.148149   -0.024648    0.697431
C       0.130621   -0.889423   -1.276380
C       1.410388   -1.625177   -1.654046
C       0.246523   -2.402232   -1.135884
C      -0.662657   -0.376071   -2.455957
C      -0.530859    1.104365   -2.771982
O      -1.279218   -1.122104   -3.183573
H      -1.814224    0.818361   -0.209202
H      -1.769146   -0.542872    0.898012
H      -1.056929    1.007112    1.404229
H       1.640283   -1.696647   -2.711147
H       2.251053   -1.446555   -0.993989
H       0.306172   -2.797173   -0.127973
H      -0.350973   -2.972648   -1.837251
H       0.470284    1.277796   -3.185317
H      -1.274237    1.390933   -3.516769
H      -0.616336    1.738931   -1.886324
