17

C      -0.096664    1.319585   -0.151476
O      -0.088062   -0.109940    0.004165
C      -1.286655   -0.698239    0.004955
O      -2.342500   -0.120295   -0.088033
C      -1.187454   -2.219200    0.118540
O      -2.472310   -2.752753    0.270314
C      -0.460315   -2.774924   -1.104119
C      -0.943423   -3.978933   -1.784047
O      -1.164010   -2.675834   -2.338358
H       0.949554    1.623045   -0.142532
H      -0.570567    1.595681   -1.096009
H      -0.640616    1.788644    0.671576
H      -0.579515   -2.455870    1.004128
H      -3.083541   -2.040258    0.029124
H       0.597574   -2.516710   -1.154848
H      -0.238430   -4.603648   -2.330238
H      -1.833851   -4.469698   -1.401988
