20

C      -1.504651   -0.851717    2.255681
C      -0.664332   -0.805987    1.007094
O      -0.505306    0.467180    0.373936
C       0.659072   -0.155645    0.925530
C       1.332909    0.557939    2.072826
C       1.105720    2.068433    2.125728
O       1.907989    2.677663    3.110304
C       1.650257   -0.179879    3.324263
N       2.727125    0.193063    2.384851
H      -1.237425   -0.051475    2.948718
H      -2.563798   -0.746851    1.999231
H      -1.378736   -1.812613    2.766284
H      -0.851338   -1.616449    0.299141
H       1.349910   -0.522354    0.160947
H       1.299822    2.485249    1.123834
H       0.060906    2.284410    2.366183
H       2.786517    2.284149    3.004323
H       1.673587    0.356563    4.267421
H       1.365188   -1.226152    3.386551
H       3.025345   -0.612076    1.839339
