18

C      -0.015565   -1.201400   -0.112574
C       0.014100   -0.002998   -0.049580
C       0.050704    1.463243    0.019874
C       1.437285    1.940282    0.222305
C       2.549074    2.379121    0.351717
N      -0.618101    2.038987   -1.145775
C      -0.005782    1.920837   -2.488759
C      -0.550184    3.334780   -2.809560
C      -0.707009    3.510049   -1.279606
H      -0.043206   -2.261715   -0.165389
H      -0.537116    1.775723    0.895896
H       3.536424    2.749200    0.480383
H       1.093172    1.898417   -2.462664
H      -0.370267    1.074607   -3.077559
H       0.126619    4.021579   -3.317865
H      -1.507947    3.310121   -3.331780
H      -1.636827    3.943145   -0.896475
H       0.149393    4.039436   -0.837024
