21

C       0.959666   -0.450006    1.261685
C       0.129014    0.064433    0.068293
C       0.793907   -0.336778   -1.269555
C       0.048311    0.131973   -2.541392
C      -0.050593    1.667303   -2.651507
C       0.695592   -0.427576   -3.727289
C       1.249535   -0.878232   -4.694777
C      -1.250674   -0.414873    0.150176
C      -2.378988   -0.825764    0.219888
H       1.017330   -1.542498    1.249244
H       1.977471   -0.050483    1.214741
H       0.510537   -0.144730    2.210116
H       0.107212    1.160518    0.128191
H       1.812579    0.068542   -1.283366
H       0.885832   -1.427541   -1.300626
H      -0.972116   -0.270006   -2.489553
H       0.945202    2.122095   -2.642372
H      -0.542326    1.952679   -3.584745
H      -0.631993    2.082048   -1.823518
H       1.724949   -1.281925   -5.553969
H      -3.377760   -1.180653    0.284804
