21

C       0.356434    1.449524   -0.151373
N      -0.148157    0.120790    0.197678
C       0.572088   -0.482787    1.301879
C       0.262514   -1.979359    1.597461
C      -0.731037   -2.709326    0.722191
O       1.649242   -2.328843    1.259294
C       1.952240   -1.014236    0.955440
N       3.013918   -0.497016    0.541626
C       4.169076   -1.350703    0.296689
H       1.401768    1.363034   -0.456337
H      -0.223061    1.844817   -0.990318
H       0.307683    2.175288    0.679611
H      -1.130027    0.189595    0.448445
H       0.589838    0.137111    2.215356
H       0.093316   -2.188153    2.658565
H      -0.580706   -2.455520   -0.328481
H      -0.620089   -3.789620    0.854241
H      -1.755168   -2.439611    1.003633
H       3.986016   -2.415936    0.479035
H       4.494519   -1.222125   -0.741393
H       4.998264   -1.023134    0.933793
