15

O       0.172676    1.222507   -0.486231
C      -0.048444    0.033100    0.248212
C      -1.431545   -0.514914    0.072992
C      -2.189160   -0.736821   -1.049744
C      -3.440892   -1.281191   -0.584022
C      -3.340041   -1.346755    0.764420
O      -2.125521   -0.880494    1.176301
C      -1.786043   -0.468646   -2.378333
C      -1.427403   -0.234591   -3.505598
H       0.011879    1.025719   -1.416975
H       0.692679   -0.739577   -0.014437
H       0.098601    0.275680    1.304586
H      -4.282715   -1.571934   -1.191186
H      -4.002577   -1.677821    1.546263
H      -1.123781   -0.035985   -4.503631
