21

C      -0.051001    1.402863   -0.006164
O      -0.017999   -0.011106   -0.024510
C       0.591791   -0.540671   -1.148406
C       0.000643   -0.491465   -2.568085
C       0.999805   -1.658493   -2.804570
C       2.356841   -0.924008   -2.717263
C       2.200175   -0.537405   -1.233917
C       2.168880   -1.931370   -0.549688
C       0.823155   -2.071358   -1.275663
H       0.959108    1.836209   -0.030107
H      -0.622202    1.806877   -0.854230
H      -0.541655    1.700222    0.923345
H      -1.041016   -0.825596   -2.550582
H       0.101071    0.403115   -3.191135
H       0.845220   -2.375836   -3.608140
H       3.227445   -1.564142   -2.890445
H       2.410834   -0.072793   -3.402433
H       2.799527    0.282366   -0.838905
H       2.984901   -2.626324   -0.771928
H       2.018330   -1.862665    0.530230
H       0.054945   -2.804217   -1.032825
