19

C       0.108276    1.468067   -0.299868
C       0.030888    0.007551    0.080309
N       1.294611   -0.743213    0.155102
C       0.493877   -0.559894    1.377515
C       1.097939    0.266344    2.476327
O       1.890889   -0.621436    3.284321
C       2.419250   -0.060724    4.398820
N       3.122677   -1.001081    5.102648
O       2.260729    1.089516    4.734842
H       0.999893    1.943107    0.114046
H       0.152086    1.573626   -1.389109
H      -0.773823    2.011906    0.054981
H      -0.820267   -0.513862   -0.357497
H       1.181755   -1.685197   -0.208331
H      -0.059800   -1.422147    1.746732
H       1.735178    1.059312    2.079068
H       0.326274    0.726646    3.101852
H       3.403184   -1.841781    4.626307
H       3.734829   -0.643685    5.816011
