13

O       0.013739    0.054402    0.182796
C       0.013855    1.244799    0.111077
C      -1.055292    2.296453   -0.079360
N      -0.544492    3.589546    0.468472
C       0.797941    3.265965    1.096551
C       1.107995    2.322386   -0.074970
C      -0.031489    3.120665   -0.839049
C      -0.113758    3.771447   -2.094766
N      -0.147460    4.287734   -3.129623
H      -2.118911    2.212772   -0.254539
H       1.389332    4.182503    1.104947
H       0.741775    2.834643    2.100668
H       2.102897    2.066018   -0.424989
