22

C       0.162523    1.444147   -0.318427
N       0.092768    0.021912   -0.023650
C      -1.113087   -0.476393    0.729938
C      -0.862406   -1.986750    0.570640
C       0.448344   -1.954608    1.394153
C      -0.097021   -1.581003    2.791399
C      -0.406879   -0.215869    2.147520
C      -0.772194    0.983992    2.989306
C       0.816969   -0.417018    1.185897
H       1.137670    1.663621   -0.768076
H      -0.604424    1.693039   -1.059831
H       0.036241    2.122515    0.540707
H      -2.083617   -0.053291    0.466808
H      -1.618558   -2.630574    1.029196
H      -0.736319   -2.249233   -0.480439
H       1.176795   -2.750715    1.249590
H      -0.910883   -2.188254    3.202337
H       0.692645   -1.470193    3.542370
H      -0.004997    1.182004    3.746647
H      -0.907963    1.895671    2.402659
H      -1.714054    0.796921    3.520980
H       1.838032   -0.076608    1.364103
