19

C       0.181554    1.364487    0.190498
N      -0.087265   -0.038403   -0.046987
C       0.544800   -0.643533   -1.124044
C       1.125622   -0.072139   -2.225893
N       1.565657   -1.164204   -2.994688
C       1.217586   -2.289456   -2.320925
N       1.428612   -3.564975   -2.811566
C       2.573942   -3.823019   -3.667243
N       0.615285   -2.021696   -1.180551
H       1.255276    1.599964    0.284731
H      -0.217209    1.962824   -0.637321
H      -0.329057    1.682898    1.102483
H      -0.045125   -0.621142    0.776927
H       1.297042    0.943469   -2.532474
H       1.960752   -1.113841   -3.916336
H       1.287947   -4.244898   -2.078328
H       3.533815   -3.497428   -3.236982
H       2.628224   -4.894758   -3.869465
H       2.447759   -3.324279   -4.635725
