18

C      -0.071790    1.499587   -0.000584
C       0.036775   -0.036604    0.002399
C       0.757496   -0.525142    1.227278
N       2.086846   -0.670190    1.155655
C       2.658217   -1.076891    2.288448
N       2.039633   -1.338089    3.435347
C       0.710306   -1.156413    3.403536
C      -0.053618   -1.433740    4.664364
N       0.028459   -0.752697    2.327999
H       0.921298    1.958556    0.008063
H      -0.599748    1.843229   -0.894399
H      -0.620948    1.850439    0.878136
H      -0.963911   -0.476903   -0.011588
H       0.586663   -0.371054   -0.881147
H       3.738635   -1.209898    2.271693
H       0.362148   -0.848896    5.490282
H      -1.108968   -1.196188    4.532273
H       0.053147   -2.488261    4.939243
