16

C      -0.060003    1.537431   -0.015404
C      -0.056646    0.029894    0.080986
O       1.203236   -0.632446   -0.162547
C       0.672647   -0.693182    1.139127
C       1.347096   -0.192748    2.412442
O       0.906039   -1.376786    3.108929
C       0.344934   -1.964441    1.912051
C      -1.202121   -0.640955   -0.512784
N      -2.132116   -1.159351   -0.962457
H       0.824752    1.943336    0.479522
H      -0.049848    1.852075   -1.062554
H      -0.955604    1.949719    0.458501
H       2.440070   -0.126892    2.339863
H       0.950603    0.727071    2.858252
H      -0.715425   -2.215878    2.023036
H       0.902627   -2.846276    1.574361
