18

C      -0.484905    1.508640    0.131330
C      -0.097861    0.041623    0.004660
C       0.741498   -0.443795   -1.225093
C       1.574156    0.526079   -2.023616
C       2.871060    0.386745   -1.741016
C       3.112605   -0.676563   -0.684131
N       1.743941   -1.019468   -0.279245
C       1.139025   -0.394369    0.822015
O       1.540340   -0.206553    1.937154
H       0.363512    2.164003   -0.085821
H      -1.299876    1.763570   -0.553507
H      -0.817977    1.718858    1.151703
H      -0.962935   -0.603758    0.186160
H       0.238175   -1.182627   -1.859824
H       1.158888    1.193509   -2.768663
H       3.683125    0.927036   -2.213448
H       3.653379   -1.542207   -1.088840
H       3.670162   -0.314621    0.186538
