14

N      -0.575652    1.457583   -0.748305
C      -0.391416    0.216152   -0.908259
N      -1.039142   -0.733333   -0.085987
C      -1.952143   -0.326925    0.889836
O      -2.632180   -1.104518    1.517263
C      -0.882137   -2.112268   -0.364282
N      -0.549205   -2.495660   -1.525419
C      -1.005391   -3.086702    0.802330
O      -1.154314   -4.260777    0.586676
H      -0.012478    1.988548   -1.409156
H       0.247351   -0.270615   -1.645291
H      -1.976991    0.763511    1.000740
H      -0.448960   -3.514450   -1.511433
H      -0.867956   -2.677409    1.814778
