17

C      -0.287108    1.350855   -0.133326
C      -0.682510   -0.078518   -0.459783
O      -1.015315   -0.729084    0.763323
C      -1.307641   -2.102355    0.646518
C      -2.728908   -2.365790    0.233716
N      -3.585222   -2.932539    1.041985
O      -4.766501   -2.982640    0.289845
C      -4.475709   -2.431032   -0.887591
N      -3.250313   -2.032829   -1.004090
H      -0.012735    1.884823   -1.048027
H      -1.118268    1.880551    0.340730
H       0.565819    1.369364    0.551034
H      -1.532532   -0.102516   -1.153260
H       0.151809   -0.612719   -0.943976
H      -0.630841   -2.591710   -0.070681
H      -1.153353   -2.551048    1.631178
H      -5.271539   -2.374961   -1.615943
