15

C       0.101838    1.499661   -0.006647
C      -0.048070    0.023145   -0.031243
C      -1.120178   -0.814277    0.076573
N      -2.459360   -0.500255    0.305894
C      -0.586236   -2.156641   -0.013937
C       0.765887   -2.019743   -0.170569
O       1.102400   -0.725095   -0.187443
C      -1.339525   -3.351057    0.036801
N      -2.003556   -4.300280    0.074999
H       0.865401    1.809114    0.715458
H       0.386479    1.909459   -0.983576
H      -0.842266    1.962688    0.292630
H      -2.768006    0.348614   -0.147206
H      -3.087658   -1.261569    0.084878
H       1.561000   -2.737989   -0.280585
