14

O       0.055301   -0.052813    0.001444
C      -0.024256    1.147429    0.009351
C      -1.212548    2.050479    0.031457
C      -0.795467    3.335241    0.032718
C       0.658245    3.359892    0.011770
C       1.770115    4.166811   -0.000016
C       2.913264    3.294209   -0.021337
C       2.459931    1.997964   -0.021774
N       1.083466    2.049643   -0.001614
H      -2.221439    1.668788    0.043820
H      -1.418381    4.219070    0.046626
H       1.785649    5.246070    0.005631
H       3.948135    3.599678   -0.034679
H       2.981727    1.055092   -0.034444
