14

O       0.136548    1.299251   -0.202177
C      -0.014352   -0.034076    0.047770
C      -0.881688   -0.816299   -1.001133
N      -0.745668   -2.356669   -0.943485
C      -0.762340   -2.069811    0.506422
C       0.439418   -2.074287    1.142876
C       0.933527   -0.670594    1.040624
O       1.912491   -0.104546    1.472657
C      -1.385588   -0.699075    0.385606
H       0.854722    1.587267    0.384829
H      -1.178621   -0.328224   -1.925670
H      -1.673515   -2.657653   -1.260836
H       1.151683   -2.889367    1.079727
H      -2.212566   -0.200995    0.870974
