20

C      -0.400865   -1.163374   -0.038368
C      -0.191936    0.019461   -0.010987
C       0.070358    1.461489    0.032985
C       1.562677    1.750599   -0.007859
C       2.120608    2.980551    0.661986
C       2.391824    1.613321    1.239539
N      -0.592372    2.113778   -1.105446
C      -2.029405    2.328337   -0.979257
C      -1.079723    3.470659   -0.876729
H      -0.586291   -2.208635   -0.063290
H      -0.326349    1.846537    0.993476
H       2.023741    1.448144   -0.942209
H       2.929813    3.507351    0.168952
H       1.435713    3.627111    1.200749
H       1.883353    1.342803    2.159346
H       3.388389    1.197010    1.147534
H      -2.609791    2.165905   -1.882501
H      -2.515322    2.001438   -0.061573
H      -0.936557    3.908383    0.109661
H      -0.948795    4.163150   -1.702945
