16

C       0.384024    1.497389   -0.218006
C       0.104858    0.018206   -0.007128
O       0.635124   -0.705979   -1.131867
C       1.128850   -1.971537   -0.721506
C       2.305714   -2.318649   -1.530817
N       3.225775   -2.635490   -2.151932
C       1.425328   -1.839345    0.768738
O       2.198045   -0.683128    1.070522
C       0.773417   -0.605627    1.202691
H       1.461950    1.674418   -0.219457
H      -0.029297    1.825425   -1.174758
H      -0.076543    2.089515    0.578805
H      -0.979682   -0.162816    0.069180
H       0.374356   -2.763394   -0.861208
H       1.580567   -2.721456    1.382019
H       0.384663   -0.448339    2.204595
