18

N       0.021325    1.210919   -0.380567
C      -0.068455    0.055960    0.353487
O       0.819110   -0.306544    1.105594
C      -1.337960   -0.715640    0.173462
C      -1.699451   -1.724469    1.255045
C      -1.264765   -2.234288   -0.079531
C      -2.323893   -2.569290   -1.129266
C      -3.044002   -1.254380   -1.347498
C      -2.487503   -0.253032   -0.660985
H       0.922201    1.662922   -0.392843
H      -0.581941    1.355959   -1.172839
H      -0.979140   -1.808597    2.060565
H      -2.745844   -1.785336    1.535304
H      -0.287476   -2.697320   -0.138155
H      -1.870742   -2.937385   -2.059270
H      -3.008375   -3.357139   -0.788850
H      -3.930133   -1.170400   -1.966715
H      -2.847118    0.770440   -0.644759
