20

C      -0.037439    1.502590   -0.013694
C       0.028030    0.005758    0.015888
C       0.101461   -0.834206   -1.071679
N       0.166408   -2.124190   -0.613475
C       0.101261   -2.132009    0.757597
C       0.186035   -3.426707    1.492231
O      -0.499699   -4.418086    0.723563
C       0.024497   -0.821973    1.187348
C      -0.033588   -0.332736    2.603393
H       0.822555    1.963356    0.488730
H      -0.054337    1.875916   -1.042010
H      -0.935657    1.883585    0.488420
H       0.102287   -0.614067   -2.127876
H       0.101572   -2.962460   -1.164501
H       1.236510   -3.731716    1.638566
H      -0.256780   -3.312895    2.492494
H      -0.285878   -5.279465    1.094358
H       0.904328    0.143723    2.917830
H      -0.825091    0.414260    2.736316
H      -0.231994   -1.147079    3.307044
