15

N       0.604181    0.323788   -0.802013
C      -0.039254    0.032330    0.358086
O       0.250620    0.527818    1.429687
C      -1.192607   -0.950695    0.276826
C      -1.837598   -1.553886   -0.920788
O      -0.866763   -1.780354   -1.982824
C      -0.202904   -2.717881   -1.163437
N       0.730369   -3.501776   -1.434657
C      -1.081829   -2.469300    0.014439
H       1.392964    0.947315   -0.753487
H       0.349761   -0.113948   -1.672324
H      -1.887578   -0.767044    1.091562
H      -2.877386   -1.504419   -1.213262
H       1.044226   -3.401594   -2.400931
H      -1.408976   -3.201388    0.736994
