18

C       0.021224    1.536212    0.040920
C       0.047522    0.019750    0.039804
C      -1.192639   -0.627283   -0.555178
C       1.307353   -0.751079   -0.157627
O       2.444937   -0.014789    0.364416
C       1.937049   -0.117206    1.658712
O       2.476075    0.191348    2.671858
C       0.656809   -0.797683    1.220077
N      -0.073175   -1.804843    1.893563
H       0.958811    1.966208    0.396352
H      -0.153174    1.907412   -0.975020
H      -0.792647    1.906226    0.673384
H      -1.334443   -0.273057   -1.581764
H      -1.123873   -1.716438   -0.562615
H      -2.085514   -0.356162    0.017908
H       1.512900   -1.533053   -0.875637
H       0.542820   -2.439952    2.390236
H      -0.715060   -1.406475    2.571073
