22

C      -0.002583    1.590871   -0.023600
C       0.023895    0.057785   -0.118639
C       0.826905   -0.419590   -1.336670
C       0.606556   -0.537385    1.160546
C      -0.183471   -0.489804    2.500761
O      -1.485736    0.050059    2.389981
C      -0.042620   -2.011811    2.539626
C      -0.612256   -2.607725    1.317204
N       0.747923   -2.044317    1.239580
H       1.010743    1.994295    0.093811
H      -0.426933    2.027141   -0.933833
H      -0.606085    1.920485    0.825731
H      -1.011734   -0.282394   -0.229665
H       1.861250   -0.058599   -1.288211
H       0.860271   -1.511270   -1.390390
H       0.385861   -0.041890   -2.264901
H       1.612544   -0.129667    1.308943
H       0.380358    0.007341    3.299787
H      -1.938605   -0.070401    3.231177
H       0.261198   -2.599154    3.400496
H      -0.614002   -3.690875    1.246159
H      -1.442902   -2.115509    0.821394
