19

C      -0.022509    1.699726   -0.334644
C       0.003826    0.183684   -0.152693
C      -1.412770   -0.334439    0.001898
O      -1.792890   -1.122540    0.830785
C       0.739489   -0.659980   -1.224649
C       2.207533   -0.342962   -1.240383
C       1.673926   -1.243994   -0.162402
C       0.984823   -0.431638    0.923052
O       1.845435    0.451772    1.608958
H       0.978284    2.093938   -0.516476
H      -0.659089    1.981101   -1.181266
H      -0.415660    2.197192    0.559315
H      -2.123248    0.075678   -0.754673
H       0.251600   -1.173719   -2.044823
H       2.771760   -0.845450   -2.019603
H       2.577534    0.646167   -0.992445
H       2.014466   -2.265091   -0.046505
H       0.416482   -1.064643    1.610976
H       1.379021    0.791978    2.378557
