18

C       1.888443   -3.878206    1.605410
C       1.040664   -2.818671    0.935761
N       0.077865   -1.976549    1.632250
C      -0.132455   -2.079570    3.069197
C       1.294575   -1.336376    1.104699
C       2.404026   -0.792994    1.992319
C       1.034888   -0.482249   -0.043377
N       0.861815    0.198671   -0.961784
H       2.289751   -3.575558    2.573232
H       1.294846   -4.785683    1.759364
H       2.731369   -4.142135    0.958894
H       0.681331   -3.125158   -0.046117
H       0.757896   -2.305591    3.670478
H      -0.555710   -1.136819    3.427802
H      -0.870561   -2.867181    3.248364
H       3.309419   -0.635060    1.399358
H       2.112874    0.171482    2.419263
H       2.650621   -1.468679    2.810602
