20

C      -0.585419    1.176165   -0.226075
C       0.246649   -0.093397   -0.126100
C       1.752039   -0.014854   -0.457386
O       2.105284   -0.659568    0.786751
C       0.727157   -0.620612    1.259036
C       0.555538    0.275047    2.483104
C       1.263746   -0.254463    3.736305
N       2.594749   -0.495788    3.562879
O       0.687010   -0.407000    4.795645
H      -0.117153    2.017083    0.294325
H      -0.710756    1.466146   -1.274735
H      -1.585128    1.032692    0.196526
H      -0.240595   -0.895829   -0.686469
H       2.102447   -0.586715   -1.323206
H       2.154861    1.005270   -0.516414
H       0.384057   -1.635170    1.495835
H       0.937403    1.278641    2.263854
H      -0.504010    0.361647    2.735484
H       2.981279   -0.525648    2.629875
H       3.088585   -0.935503    4.322733
