21

C       0.321544    1.646631   -0.686431
C       0.382132    0.163946   -0.376987
C       1.600509   -0.709615   -0.473299
C       2.852370   -0.005633    0.072604
C       2.161416    0.092226    1.476260
C       2.104945    1.422285    2.241928
C       3.461522    1.801695    2.788427
O       4.041801    2.830901    2.555701
C       0.884244   -0.512436    0.876303
H       1.264118    2.162402   -0.493243
H       0.083836    1.798385   -1.745205
H      -0.457758    2.143566   -0.098274
H      -0.499443   -0.362904   -0.741303
H       1.623895   -1.594857   -1.097609
H       3.738907   -0.642453    0.086319
H       3.121767    0.940213   -0.407650
H       2.618341   -0.656785    2.133589
H       1.731540    2.246573    1.632275
H       1.426945    1.297410    3.099529
H       3.921502    1.024248    3.445674
H       0.249735   -1.211133    1.411277
