16

O      -0.449692    0.649466    0.746013
C       0.205314    0.977447   -0.211032
C       1.375522    1.896684   -0.132978
C       1.927762    2.325755    1.221773
C       2.693993    3.638673    0.958432
C       2.139720    4.179954   -0.369072
O       2.153264    5.326613   -0.734225
C       1.505169    3.038728   -1.121376
N       2.297814    1.814011   -1.264967
H      -0.014925    0.617966   -1.238656
H       1.086049    2.483721    1.900777
H       2.551207    1.542400    1.663136
H       2.555851    4.389300    1.738489
H       3.775859    3.487081    0.866074
H       0.798821    3.253314   -1.915782
H       3.261966    1.944084   -0.965215
