20

C       0.250614    1.817525   -0.169146
C      -0.040996    0.339391   -0.030696
C       0.272397   -0.709561   -1.041011
C       1.258546   -0.422171   -2.165552
C       2.568241    0.046539   -1.472877
C       2.368867   -0.355053    0.024620
N       0.962359   -0.706959    0.262720
C       3.783305   -0.631849   -2.063580
O       4.745759   -0.068486   -2.514413
H       1.027901    2.054148   -0.896134
H      -0.661166    2.335751   -0.484268
H       0.548717    2.244306    0.795200
H      -0.942582    0.160083    0.554380
H      -0.440184   -1.513379   -1.210311
H       1.429854   -1.347645   -2.728745
H       0.897195    0.321350   -2.881904
H       2.721293    1.120951   -1.580825
H       2.963821   -1.245096    0.263079
H       2.696668    0.440788    0.699666
H       3.724867   -1.747897   -2.045378
