17

O      -0.998718    2.498515    1.187524
C      -0.247715    1.644070    0.798448
C       0.950887    1.907711   -0.069556
C       2.213218    1.276467    0.374714
O       1.468418    0.728935   -0.700830
C       0.942440    3.186670   -0.869799
C       2.018116    3.368809   -1.961433
C       0.816731    3.446683   -2.924599
O      -0.115775    3.181774   -1.854515
H      -0.365349    0.569676    1.064292
H       3.153767    1.756862    0.109181
H       2.230915    0.682981    1.287987
H       0.827399    4.028779   -0.176020
H       2.632671    4.265247   -1.877369
H       2.650359    2.493124   -2.111427
H       0.644707    4.430746   -3.377219
H       0.771382    2.679310   -3.704961
