21

O       0.119090    1.504109    0.069786
C       0.033049    0.081468   -0.006220
C       0.640141   -0.468164   -1.311331
C      -0.022399    0.116173   -2.564340
C       0.599342   -0.391957   -3.847620
C       0.157950   -1.705234   -4.445783
C      -0.188672   -0.405330   -5.131504
C       0.635973   -0.554370    1.169329
C       1.175941   -1.056691    2.118997
H       1.036586    1.726103    0.264660
H      -1.044752   -0.126594   -0.008603
H       1.715996   -0.246904   -1.312507
H       0.549590   -1.560615   -1.307033
H      -1.092601   -0.133615   -2.558260
H       0.036360    1.209409   -2.520460
H       1.658232   -0.163862   -3.949670
H       0.901899   -2.348473   -4.902716
H      -0.644560   -2.241618   -3.948839
H      -1.221403   -0.073639   -5.094605
H       0.321700   -0.157581   -6.055747
H       1.633193   -1.503164    2.967357
