19

C       0.123020    1.569311   -0.201575
C       0.038323    0.055088   -0.013153
C       0.758614   -0.398444    1.254501
O       1.304645    0.399813    1.996211
N       0.769917   -1.753022    1.529837
C       0.191672   -2.801607    0.706637
C       1.472279   -2.186339    2.725816
C       0.579085   -2.838749    3.694436
N      -0.128261   -3.369667    4.437843
H       1.162470    1.895896   -0.277900
H      -0.405049    1.866440   -1.111952
H      -0.320871    2.093008    0.647664
H      -1.009966   -0.264370    0.038264
H       0.469523   -0.462844   -0.878593
H      -0.385233   -2.377857   -0.111399
H       0.974201   -3.444663    0.281561
H      -0.477529   -3.429279    1.306029
H       2.276663   -2.889783    2.471991
H       1.917961   -1.295993    3.176366
