20

C      -0.066224    1.547317   -0.042336
C       0.014487    0.015153   -0.037046
C       0.721528   -0.482422   -1.301139
O      -0.035802   -0.057794   -2.427326
C       0.715391   -0.536667    1.237000
C       0.066251   -0.035066    2.544757
C       0.751975   -2.000768    1.241948
C       0.757321   -3.203154    1.275746
H       0.923649    1.992725    0.119308
H      -0.434847    1.888873   -1.011619
H      -0.737969    1.928651    0.730343
H      -1.004274   -0.393181   -0.060841
H       1.744504   -0.068418   -1.333719
H       0.805527   -1.576603   -1.272208
H       0.399836   -0.383336   -3.219782
H       1.754999   -0.175388    1.221057
H       0.557537   -0.488287    3.409303
H       0.149569    1.050322    2.633598
H      -0.993357   -0.307023    2.578075
H       0.772146   -4.264593    1.299166
