20

C       0.018304    1.613364    0.054406
C       0.010420    0.082605    0.010450
C      -1.406238   -0.496615    0.103531
C      -1.464343   -2.026325   -0.012467
C      -0.801688   -2.770282    1.168554
C      -2.898921   -2.500105   -0.162337
O      -3.883550   -1.815012   -0.052813
C      -3.048627   -3.945263   -0.473385
N      -3.158408   -5.068029   -0.727902
H       1.036711    2.007127   -0.015257
H      -0.561279    2.036344   -0.773298
H      -0.419996    1.984265    0.987296
H       0.482554   -0.259698   -0.920308
H       0.630565   -0.304444    0.827608
H      -1.873566   -0.192867    1.048288
H      -2.028163   -0.061375   -0.686935
H      -0.949249   -2.346496   -0.931642
H      -0.900737   -3.854704    1.068251
H       0.264199   -2.537258    1.210941
H      -1.256350   -2.469573    2.118025
