15

N      -0.016029    1.280495    0.457860
C       0.040975    0.105788    0.012781
O       1.201715   -0.572909   -0.173357
C       1.255280   -1.739886   -1.005011
C       0.024979   -2.603123   -0.796242
C      -1.200020   -1.712554   -1.009206
O      -1.138585   -0.551434   -0.188873
C      -1.352453   -1.335738   -2.431152
N      -1.459040   -1.062320   -3.548351
H       0.924975    1.634818    0.615419
H       1.339856   -1.430216   -2.054432
H       2.173335   -2.257752   -0.721956
H       0.014567   -3.445802   -1.492206
H      -0.004231   -2.989986    0.226446
H      -2.116152   -2.224599   -0.702069
