15

C      -0.053245    1.444739   -0.019241
C      -0.047640   -0.009470    0.029794
C      -0.047478   -1.211901    0.068816
C      -0.002762   -2.662628    0.123872
O      -1.331276   -3.178825   -0.093887
C      -1.414929   -4.531842   -0.032660
N      -2.693498   -4.929071   -0.303037
O      -0.484346   -5.268703    0.197842
H       0.615663    1.820063   -0.801272
H      -1.058423    1.824264   -0.232902
H       0.269161    1.877965    0.933781
H       0.669519   -3.071142   -0.638789
H       0.364981   -3.016138    1.093289
H      -3.431465   -4.246670   -0.268070
H      -2.918213   -5.883542   -0.081786
