17

C       0.274754    1.444117   -0.498333
C      -0.014578    0.032170   -0.044180
C      -1.246709   -0.615519   -0.640104
O       1.122809   -0.824333    0.063596
C       0.469481   -0.477730    1.275864
C       1.216403    0.394650    2.245060
O       2.207008    1.032380    1.961333
C       0.627631    0.433494    3.574477
C       0.130559    0.450909    4.670831
H       1.182584    1.828516   -0.033920
H       0.408148    1.454723   -1.585458
H      -0.564833    2.105218   -0.259365
H      -1.170729   -0.628088   -1.732778
H      -1.356934   -1.645014   -0.291996
H      -2.147768   -0.053645   -0.373867
H      -0.105428   -1.276291    1.746049
H      -0.295624    0.481400    5.644417
