16

C      -0.035292   -1.209811   -0.015704
C      -0.032948   -0.008378    0.005280
C       0.005443    1.447557    0.031214
C       1.440363    1.996424   -0.033321
N       1.419685    3.454618    0.014719
C       2.757495    4.034313    0.016062
C       2.697291    5.498618    0.014308
N       2.651221    6.652266   -0.011185
H      -0.052662   -2.271365   -0.032659
H      -0.573893    1.844536   -0.813758
H      -0.475563    1.827988    0.939581
H       2.001910    1.633329    0.835293
H       1.946832    1.595036   -0.928495
H       0.896990    3.820923   -0.775406
H       3.280708    3.711517    0.924921
H       3.389323    3.719677   -0.835088
