17

C       0.151692    1.470956    0.039980
N      -0.127852    0.043655    0.126257
C       0.529534   -0.740635    1.031618
C       0.689784   -2.101640    1.112770
C       0.224690   -3.177708    0.184805
C       1.413230   -2.227838    2.326016
O       1.815210   -3.402117    2.844704
N       1.679856   -1.091783    2.926431
O       1.101901   -0.116126    2.071554
H       1.176425    1.692926   -0.288724
H      -0.551765    1.920288   -0.663845
H       0.001770    1.930738    1.018606
H      -0.313014   -0.419459   -0.750181
H       0.390187   -2.910985   -0.866697
H       0.776832   -4.101874    0.374232
H      -0.842475   -3.405824    0.299255
H       2.299131   -3.207525    3.658280
