15

O      -0.008211   -0.123708   -0.011516
C      -0.065935    1.089385    0.026212
N      -1.241713    1.760191   -0.133544
C      -1.530500    3.179891   -0.110204
C      -0.543826    3.956261    0.739679
O       0.713791    4.120163    0.083476
C       1.596162    3.102527    0.029567
O       2.757627    3.310796   -0.191674
N       1.125189    1.808231    0.268178
H      -1.998085    1.126716   -0.339177
H      -1.537560    3.614789   -1.119593
H      -2.532699    3.313004    0.312405
H      -0.911262    4.973145    0.889813
H      -0.406309    3.481683    1.717547
H       1.896832    1.154362    0.289135
