16

C      -0.111154    1.568619    0.132961
C      -0.004799    0.077497    0.049652
C       0.079660   -0.702833   -1.064985
C       0.087913   -0.402731   -2.529960
C       1.405891   -0.577506   -3.155104
N       2.442766   -0.713278   -3.645639
O       0.173237   -2.021539   -0.726317
C       0.147341   -2.082623    0.629831
C       0.037413   -0.839541    1.158758
H       0.753986    1.999543    0.648988
H      -0.164111    2.031119   -0.856382
H      -1.003836    1.873202    0.690174
H      -0.627780   -1.046920   -3.055027
H      -0.236963    0.629476   -2.690882
H       0.212046   -3.070777    1.054367
H      -0.008346   -0.587693    2.207138
