23

C      -0.871587   -1.413661   -0.792965
C       0.001174   -1.220025   -2.034237
C      -0.756790   -0.548055   -3.174714
O       1.129901   -0.380066   -1.775652
C       2.200011   -0.847607   -0.985143
C       2.466171    0.133204    0.137016
O       1.355703    0.284193    1.002305
C       2.479683   -2.309848   -0.767522
C       3.381863   -1.486658   -1.665053
H      -0.286843   -1.782733    0.052404
H      -1.335920   -0.464463   -0.500407
H      -1.675372   -2.128247   -0.999115
H       0.346798   -2.203316   -2.383504
H      -1.092572    0.448726   -2.871452
H      -0.114184   -0.439678   -4.052185
H      -1.634756   -1.138710   -3.452670
H       3.300102   -0.219254    0.751960
H       2.758380    1.099837   -0.303202
H       0.626970    0.580005    0.445532
H       2.842008   -2.603557    0.212158
H       1.848607   -3.052315   -1.240635
H       3.293465   -1.647625   -2.733882
H       4.382563   -1.238627   -1.326230
