21

C      -0.022043    1.538497   -0.022968
C      -0.037776    0.082517   -0.029544
C      -0.047546   -1.122710   -0.041086
C      -0.078468   -2.571017   -0.029779
C       0.314509   -3.331283    1.280115
C      -0.822025   -4.346260    0.988225
C      -1.645265   -4.850906    2.153344
O      -2.693797   -5.655822    1.632281
C      -1.457113   -3.307606    0.026322
H       0.396658    1.929466    0.911356
H       0.582077    1.936102   -0.846307
H      -1.032629    1.949416   -0.127633
H       0.510081   -2.965027   -0.866103
H       1.337979   -3.705088    1.354901
H       0.094340   -2.720155    2.160578
H      -0.441904   -5.205595    0.425496
H      -1.003136   -5.425468    2.842242
H      -2.044785   -3.992099    2.718514
H      -3.240128   -5.952121    2.365960
H      -2.205407   -2.694803    0.536917
H      -1.873658   -3.663343   -0.917370
