15

C      -0.056595    1.431303    0.009028
C       1.412001    1.859271   -0.023500
O       2.167191    1.460072    1.115867
C       2.266449    0.652324   -0.081941
C       1.340589   -0.498658   -0.067256
C       1.237118   -1.874800   -0.048370
C      -0.155623   -2.105649    0.048785
N      -0.863331   -0.970570    0.088590
N       0.071401   -0.019439    0.003527
H      -0.570760    1.779035    0.909565
H      -0.601638    1.784921   -0.872540
H       1.683285    2.810875   -0.470680
H       3.243125    0.620501   -0.550429
H       2.030537   -2.602693   -0.082925
H      -0.671011   -3.054045    0.090921
