23

C      -0.908973    1.182886    0.076421
C      -0.061961   -0.084732   -0.098602
C       0.849373   -0.073521   -1.310003
C       2.070155   -0.542711   -1.051146
C       2.242240   -0.942174    0.389344
C       3.073787    0.037278    1.264461
C       1.761644    0.780549    1.633453
C       0.921557   -0.412299    1.058638
C       0.316181   -1.294777    2.141629
H      -0.291760    2.084813    0.127149
H      -1.599423    1.303992   -0.765025
H      -1.510273    1.133193    0.990681
H      -0.768897   -0.924763   -0.199062
H       0.505540    0.264659   -2.283135
H       2.868073   -0.638929   -1.781239
H       2.486536   -2.005123    0.502987
H       3.532982   -0.462613    2.121897
H       3.843844    0.621261    0.753280
H       1.606368    1.003179    2.692502
H       1.637461    1.706073    1.068697
H      -0.527243   -0.794715    2.633369
H      -0.053328   -2.238180    1.723300
H       1.048826   -1.539300    2.918938
