14

C      -0.180771    1.493893    0.163481
N       0.037125    0.058541   -0.006093
C       0.538917   -0.438936   -1.289689
C       0.842250    0.435431   -2.387059
C       1.062385    1.152640   -3.326180
C       1.407464   -0.449047   -0.045119
C       2.540726    0.439551    0.038303
N       3.453168    1.141662    0.147872
H       0.545167    2.125227   -0.362638
H      -1.182890    1.728328   -0.204287
H      -0.139777    1.720019    1.232007
H       0.111502   -1.397553   -1.576528
H       1.274147    1.787342   -4.151472
H       1.557666   -1.395709    0.467855
