16

C      -0.053871    1.628573    0.012054
C       1.449720    1.866748   -0.001370
C       2.125877    0.736451    0.746035
C       2.111001    0.744640   -0.773999
C       1.086671   -0.392102   -0.982893
O       1.469282   -1.416775   -0.019242
C       1.105704   -0.402575    0.962683
C      -0.012599    0.113115    0.003490
H      -0.537545    2.034513    0.907786
H      -0.554936    2.044087   -0.869617
H       1.873718    2.864269   -0.000144
H       3.022641    0.855115    1.337512
H       2.996028    0.869765   -1.381601
H       0.899698   -0.774071   -1.985423
H       0.938341   -0.795335    1.964509
H      -0.937135   -0.458751    0.009455
