21

C      -0.203555    1.552029   -0.339802
C      -0.013169    0.048358   -0.123423
C       0.722996   -0.632378   -1.282757
C       0.924906   -2.132127   -1.081159
C      -0.344974   -3.003215   -1.374943
C       0.248610   -3.210898   -2.773285
O      -0.208597   -3.279649   -3.880870
C       1.650835   -2.840023   -2.294617
O       2.480697   -2.131853   -3.163651
H       0.760323    2.059992   -0.454590
H      -0.790448    1.750886   -1.243400
H      -0.725339    2.013666    0.504127
H       0.546640   -0.121629    0.805854
H      -0.991779   -0.427099    0.023090
H       0.171717   -0.455962   -2.217906
H       1.704719   -0.164785   -1.424690
H       1.398692   -2.330833   -0.116949
H      -0.378163   -3.927681   -0.791681
H      -1.323627   -2.520294   -1.340096
H       2.180485   -3.727128   -1.921002
H       1.969507   -1.952773   -3.962764
