16

C      -0.071674    1.510889   -0.009545
C       0.025416    0.009675    0.013260
N      -0.789046   -0.810827    0.918617
C       0.692302   -0.775832    1.093646
C       1.473658   -1.903143    0.449623
O       2.338517   -2.554079    0.978308
C       1.163289   -1.900928   -1.041686
O      -0.227426   -2.042290   -1.366698
C       0.304693   -0.729572   -1.306083
H       0.801396    1.956019   -0.499046
H      -0.963975    1.837428   -0.555754
H      -0.127634    1.915429    1.005780
H      -1.187900   -0.206423    1.636839
H       1.110057   -0.331259    1.990622
H       1.873857   -2.342018   -1.734832
H       0.332540   -0.175061   -2.240702
