19

O       0.022873   -0.105860    0.008083
C       0.105856    1.085216    0.163461
C       1.356579    1.901844    0.009613
C       1.266557    3.163994   -0.905389
C       2.095612    3.948294    0.145597
C       1.719504    5.406139    0.429914
C       2.467473    5.971833    1.546976
C       3.099640    6.404799    2.473173
C       1.723940    2.860662    1.186528
H      -0.790298    1.690797    0.447306
H       2.184002    1.245643   -0.267495
H       1.660788    3.072918   -1.919305
H       0.236914    3.536996   -0.961349
H       3.162351    3.891220   -0.091451
H       1.889447    6.009617   -0.471907
H       0.642968    5.468478    0.640166
H       3.651265    6.801225    3.289211
H       0.832680    3.144775    1.757997
H       2.491993    2.522629    1.883382
