17

C      -0.061841    1.453673   -0.022360
N      -0.016921    0.002738   -0.024759
C       0.582102   -0.597351    0.944667
C       1.247661    0.026213    2.097896
C       1.827044   -0.722458    3.041687
O       1.864521   -2.083351    3.021777
C       1.266615   -2.714535    1.969798
N       1.461937   -4.078552    2.066645
C       0.641603   -2.047970    0.977299
H       0.937894    1.914754   -0.060957
H      -0.609015    1.794718   -0.905939
H      -0.576917    1.867697    0.859144
H       1.276763    1.101810    2.207194
H       2.331175   -0.342080    3.921008
H       1.527402   -4.415854    3.017083
H       0.834245   -4.628140    1.499237
H       0.172358   -2.596294    0.169947
