20

C       0.089905    1.306347    0.276244
O       0.030342   -0.059397   -0.106921
C      -1.249752   -0.562194   -0.113181
C      -2.000041   -0.975143    1.124150
C      -1.677025   -2.000670    0.047000
C      -2.594331   -1.845826   -1.201192
C      -2.183873   -0.433647   -1.367431
N      -3.570155   -0.757042   -0.980775
C      -4.522572   -0.608948   -2.077484
H       1.141376    1.600201    0.245574
H      -0.480328    1.945934   -0.412228
H      -0.300965    1.453529    1.292038
H      -1.358396   -1.066956    1.995729
H      -3.019530   -0.665016    1.312464
H      -1.070290   -2.874893    0.241441
H      -2.776895   -2.605229   -1.951055
H      -1.957907    0.124258   -2.267902
H      -4.104464   -0.850779   -3.069752
H      -5.378949   -1.266576   -1.898123
H      -4.882254    0.424575   -2.101783
