16

O       0.202280    1.366166   -0.197380
C       0.023934   -0.029162   -0.171549
C      -1.410908   -0.451207    0.042747
C      -2.481325    0.380486   -0.066369
N      -3.768295   -0.066300    0.141094
C      -3.953513   -1.310856    0.436068
C      -2.891632   -2.312683    0.574954
N      -2.980483   -3.559948    0.860281
N      -1.626747   -1.760777    0.362236
H      -0.071323    1.717057    0.657282
H       0.372032   -0.396431   -1.145074
H       0.656218   -0.514488    0.592281
H      -2.350822    1.418555   -0.336201
H      -4.973762   -1.656131    0.599923
H      -3.955633   -3.821757    0.993213
H      -0.853118   -2.404690    0.464117
