25

C       0.059063    1.481182    0.279918
C      -0.022240   -0.013451   -0.043736
C       0.679346   -0.440229   -1.354374
C       0.078843    0.266708   -2.573521
O       2.055264   -0.028379   -1.326641
C       0.595407   -1.976473   -1.481977
C       1.311396   -2.563735   -2.693208
O       1.342033   -3.969307   -2.539138
C       1.982793   -4.619789   -3.608008
H       1.093110    1.831260    0.219428
H      -0.539423    2.082962   -0.410222
H      -0.312462    1.677079    1.290282
H       0.435709   -0.584445    0.776677
H      -1.070230   -0.335727   -0.082204
H       0.154204    1.350672   -2.464725
H       0.614782   -0.009527   -3.484601
H      -0.975275    0.000044   -2.695136
H       2.470267   -0.448109   -0.564600
H       1.041485   -2.427742   -0.585542
H      -0.454703   -2.290612   -1.492444
H       0.792928   -2.300086   -3.629487
H       2.332286   -2.156440   -2.760200
H       1.472139   -4.435275   -4.567217
H       3.031393   -4.298027   -3.715121
H       1.962887   -5.692711   -3.400121
