18

C       0.107525    1.306485    0.007015
O      -0.046439   -0.119628    0.000928
C      -1.315683   -0.563318    0.011527
O      -2.282108    0.159334    0.025338
C      -1.359532   -2.075086    0.004145
C      -2.789616   -2.590938    0.015537
O      -2.716624   -4.017290    0.007618
C      -3.894559   -4.669934    0.014655
N      -3.916986   -5.931749    0.008500
H       1.182050    1.487723   -0.002510
H      -0.363692    1.748381   -0.874410
H      -0.346384    1.738944    0.902091
H      -0.825458   -2.445405   -0.877256
H      -0.808351   -2.454393    0.871082
H      -3.318593   -2.236852    0.908138
H      -3.335944   -2.227882   -0.862903
H      -4.767279   -4.001832    0.025254
H      -4.880080   -6.260992    0.014931
