15

O       0.032473    0.085709    0.600463
C      -0.017370    1.153578    0.060292
C      -1.331545    1.908503   -0.144946
N      -1.322565    3.054013   -1.051693
C      -0.091395    3.821277   -0.877538
C       1.151737    2.950408   -1.116266
O       1.137830    1.767724   -0.310321
C      -0.065851    4.982221   -1.772433
N      -0.013635    5.878509   -2.498614
H      -2.080707    1.184689   -0.470491
H      -1.640980    2.243157    0.854899
H      -1.391806    2.743975   -2.016570
H      -0.073072    4.189589    0.157362
H       1.199960    2.662563   -2.173825
H       2.072763    3.481112   -0.861194
