21

O      -0.117414    1.435282   -0.134931
C      -0.007816    0.042347    0.141731
C      -1.400071   -0.547776    0.032063
C      -2.029513   -0.642124   -1.394279
C      -1.245737   -1.976569   -1.571704
C      -1.516501   -2.103508   -0.044176
C      -3.041357   -2.288932   -0.028497
O      -3.536053   -2.076059    1.283719
C      -3.437135   -1.175660   -1.064072
H       0.749786    1.833088   -0.014880
H       0.698871   -0.437828   -0.551018
H       0.373380   -0.128515    1.161642
H      -2.032399   -0.075839    0.788914
H      -1.950154    0.180287   -2.104468
H      -1.679140   -2.736330   -2.230493
H      -0.192272   -1.845242   -1.816775
H      -0.942413   -2.767377    0.603577
H      -3.321279   -3.292299   -0.380286
H      -4.497224   -2.087968    1.245592
H      -4.076310   -0.421853   -0.593725
H      -3.954965   -1.575244   -1.941427
