17

N       0.747104   -0.064276    0.458060
C      -0.271221    0.261204   -0.383792
O      -0.473315    1.394876   -0.773928
C      -1.158929   -0.908460   -0.848548
C      -0.904620   -2.260149   -0.251428
C      -0.300257   -3.330951   -0.876339
N      -0.255177   -4.376531    0.009770
C      -0.819236   -4.000025    1.201026
C      -1.231128   -2.694536    1.072534
H       1.320218    0.679664    0.819415
H       0.841172   -0.994710    0.827335
H      -2.188109   -0.581693   -0.663899
H      -1.052258   -0.945172   -1.937921
H       0.091659   -3.428680   -1.876456
H       0.126233   -5.284698   -0.188251
H      -0.885659   -4.688462    2.028010
H      -1.725817   -2.108982    1.833195
