20

C       0.005964    1.454685    0.072891
C       0.063853   -0.048289    0.043284
C       0.614750   -0.975709   -1.088335
C       0.119079   -1.937844    0.025381
C       0.807786   -0.992938    1.047600
C      -1.152799   -1.025996    0.118981
C      -2.020655   -1.038335    1.364642
N      -2.993391   -2.001440    1.356352
O      -1.904452   -0.248582    2.285502
H       1.012053    1.886333    0.033333
H      -0.560794    1.845677   -0.779761
H      -0.482025    1.790117    0.992075
H       0.063773   -0.983357   -2.034128
H       1.695321   -0.945257   -1.254153
H       0.135615   -3.028854    0.011072
H       1.900605   -0.964776    1.006631
H       0.441818   -0.998002    2.073357
H      -1.784761   -1.053692   -0.777593
H      -2.998942   -2.737465    0.671623
H      -3.546940   -2.118805    2.189738
