19

O       0.090689    1.138712   -0.669248
C       0.004026   -0.193067   -0.172903
C      -1.396708   -0.595181    0.171713
C      -2.395341   -1.122477   -0.859283
C      -2.050523   -1.948974    0.343473
C      -1.540894   -3.364473    0.359978
O      -0.812277   -3.690473   -0.811353
O      -2.819214   -1.522906    1.472750
C      -2.177140   -0.214580    1.426376
H      -0.483966    1.193641   -1.440135
H       0.425866   -0.921756   -0.881472
H       0.635803   -0.208078    0.722261
H      -3.389825   -0.692434   -0.946246
H      -1.935295   -1.432363   -1.793212
H      -0.854118   -3.502107    1.201426
H      -2.391971   -4.044207    0.523707
H      -1.442365   -3.772641   -1.534113
H      -1.539802   -0.069524    2.306339
H      -2.904992    0.601327    1.356302
