17

O      -0.173475   -0.007547    0.234085
C      -0.073059    1.185220    0.040917
N       1.099203    1.850524   -0.151837
C       2.389869    1.179491   -0.161325
C       2.960812    1.035459   -1.598404
N       3.723384    2.262668   -1.752346
C       4.124062    2.838323   -0.571687
O       4.859246    3.791932   -0.455103
C       3.462272    2.023880    0.547754
H      -0.943327    1.869810    0.010015
H       1.063713    2.840390   -0.341954
H       2.223436    0.204193    0.293892
H       3.594757    0.140906   -1.677748
H       2.160065    0.955336   -2.337901
H       4.165099    2.535403   -2.616410
H       3.065947    2.668752    1.333365
H       4.231277    1.387299    0.998542
