18

O       0.730232   -0.219584    0.212343
C       0.373665    0.911178   -0.006766
C       1.303336    2.094468   -0.110976
C       0.876033    3.146324   -1.169758
C       1.042610    4.470361   -0.460397
C       1.305826    4.319649    0.835075
C       1.364692    2.885823    1.225768
C       0.806487    2.370325    2.514318
N       2.259198    2.474444    2.314350
H      -0.707638    1.163430   -0.110993
H       2.305594    1.712039   -0.327986
H       1.478843    3.071922   -2.081084
H      -0.168411    2.998665   -1.482326
H       0.929436    5.418113   -0.973739
H       1.451047    5.108716    1.562879
H       0.389742    3.067957    3.236155
H       0.352605    1.383193    2.525081
H       2.645941    1.553698    2.114608
