20

C      -0.011846    1.595034   -0.092583
C       0.014724    0.064486    0.003306
N       0.668484   -0.527054   -1.164900
C       1.961460   -0.955563   -1.232732
O       2.478761   -1.352978   -2.259817
C       2.723767   -0.960779    0.090919
O       2.131429   -0.203643    1.127985
C       0.740774   -0.469309    1.252255
C       0.268395    0.133763    2.565689
H       1.000555    1.996908    0.002687
H      -0.415908    1.906707   -1.060539
H      -0.640481    2.032811    0.687927
H      -1.015954   -0.313284    0.031825
H       0.199851   -0.476922   -2.059150
H       2.847639   -2.014658    0.390889
H       3.718600   -0.549469   -0.092570
H       0.584209   -1.561326    1.278916
H       0.501292    1.200329    2.613211
H      -0.811121    0.003608    2.688460
H       0.773739   -0.359547    3.399505
