15

O      -0.110628    1.426424    0.096922
C      -0.018472    0.017825    0.240803
C      -1.337095   -0.576734   -0.255749
C      -1.379127   -2.061775   -0.106770
N      -1.475779   -2.884484   -1.142408
N      -1.473541   -4.101781   -0.546024
C      -1.376027   -3.966866    0.790346
N      -1.312845   -2.690718    1.109359
H       0.698570    1.815922    0.440054
H       0.815890   -0.393613   -0.349385
H       0.138618   -0.275544    1.288636
H      -2.151495   -0.123817    0.320438
H      -1.485081   -0.316323   -1.306579
H      -1.546963   -4.935275   -1.105446
H      -1.356903   -4.804558    1.471494
