21

C      -0.196790    1.583253    0.014395
C      -0.002276    0.059835   -0.040734
C       0.785658   -0.464382   -1.214290
C       1.836596   -1.199947   -0.849907
C       1.984591   -1.339577    0.647810
C       1.780930   -2.790074    1.133071
C       3.320816   -0.789187    1.180989
C       0.815430   -0.462981    1.155295
O       0.593175   -0.213492    2.312751
H       0.762483    2.104040   -0.066516
H      -0.838044    1.925660   -0.803266
H      -0.660397    1.863952    0.963796
H      -0.997017   -0.408941    0.008371
H       0.504687   -0.248444   -2.239625
H       2.532224   -1.672189   -1.536388
H       2.593991   -3.430834    0.775801
H       1.769698   -2.820771    2.226732
H       0.837678   -3.206801    0.766855
H       3.504138    0.228939    0.824560
H       3.306945   -0.771679    2.274613
H       4.155190   -1.418101    0.852898
