21

C       0.168245    1.357552    0.062761
O      -0.244794    0.060263   -0.297181
C       0.552893   -0.535352   -1.290675
C       1.871235   -1.178141   -0.762209
C       1.142766   -2.554324   -0.651415
C       1.877270   -3.805550   -1.101496
O       0.545797   -2.738807    0.626075
C       0.018596   -1.973116   -1.573781
O      -1.305263   -2.269479   -1.279617
H       1.178962    1.368622    0.497860
H       0.160723    2.037328   -0.803610
H      -0.538361    1.727408    0.809741
H       0.651069    0.137302   -2.155140
H       2.672279   -1.174954   -1.506922
H       2.255002   -0.773850    0.178092
H       2.710980   -4.037335   -0.426652
H       1.194784   -4.660900   -1.104530
H       2.289534   -3.683587   -2.108496
H       1.248924   -2.809133    1.279933
H       0.197618   -2.249926   -2.617135
H      -1.429711   -2.026868   -0.353396
