18

C      -0.063869    1.551552    0.030871
C       0.012649    0.017039    0.010190
C       0.746667   -0.490808   -1.219914
C       1.857114   -1.211833   -1.064960
C       2.281070   -1.475266    0.365463
C       1.070102   -2.027189    1.157037
C       0.745919   -0.521487    1.256176
O       2.166834   -0.224866    1.118436
H       0.941614    1.971024    0.124950
H      -0.513708    1.939252   -0.888695
H      -0.666895    1.903003    0.875203
H      -1.011854   -0.384596    0.009163
H       0.354726   -0.226817   -2.198687
H       2.430145   -1.609668   -1.895729
H       3.264917   -1.935273    0.473959
H       0.374579   -2.690651    0.639927
H       1.359058   -2.437105    2.126403
H       0.330343   -0.126024    2.188189
