13

C       0.036019   -1.198711   -0.075420
C       0.051412    0.004226   -0.017009
C       0.035770    1.415132    0.081462
N       0.207548    2.333772   -1.082551
C       1.154493    2.408365    0.039673
C       0.473310    3.214151    1.202074
O      -0.843597    3.588028    0.795242
C      -0.630177    2.259397    1.245821
H       0.029003   -2.259015   -0.131572
H       0.655670    1.780403   -1.814089
H       2.214370    2.224006   -0.072916
H       0.961636    3.794644    1.974006
H      -1.235217    1.867259    2.053508
