8

N       0.010091   -1.137540   -0.033339
C       0.013046    0.017077    0.012203
C      -0.015740    1.463649    0.061102
C       0.523595    2.185050    1.230348
O       1.243193    2.130864    0.005019
H      -0.811138    1.919643   -0.524762
H       0.094394    3.151875    1.485889
H       0.950069    1.614786    2.052305
