17

O       0.061924    1.335466   -0.097589
C       0.040309   -0.067496   -0.036430
C       0.499179   -0.665275    1.336931
C      -0.851784   -1.275100    1.746520
C      -1.278109   -2.069547    0.492166
C      -1.426314   -0.606946    0.005891
O      -1.799934   -0.218683    1.360234
C      -2.341850   -0.187358   -1.097449
O      -3.294332    0.533969   -0.963473
H      -0.555479    1.643559    0.580118
H       0.615370   -0.430900   -0.891165
H       1.299053   -1.405160    1.252551
H       0.822748    0.132878    2.008118
H      -0.997789   -1.642432    2.761126
H      -0.550989   -2.722013    0.003264
H      -2.246144   -2.557001    0.611468
H      -2.053473   -0.607740   -2.088979
