15

O       0.017346    1.476302    0.060861
C      -0.039144    0.085587   -0.021153
C      -1.481607   -0.463601   -0.138102
C      -1.433899   -1.417437   -1.302402
C      -0.266583   -1.406649   -1.958047
C       0.666907   -0.454675   -1.326850
O       1.760223   -0.110518   -1.694154
C       0.684496   -0.535088    1.160595
O       1.322655    0.138094    1.930585
H       0.693281    1.674779    0.728696
H      -1.844161   -0.950748    0.775195
H      -2.155096    0.377983   -0.332422
H      -2.288636   -2.031449   -1.565516
H      -0.010135   -1.971467   -2.844913
H       0.603778   -1.635888    1.264936
