17

C      -0.162242    1.478365    0.193213
C       0.020026   -0.013063    0.015475
C       1.354614   -0.587790   -0.390032
C       0.811745   -0.826234    0.998608
N      -1.145891   -0.663754   -0.544229
N      -1.584678   -0.407042   -1.773567
C      -2.667856   -1.169704   -1.828935
N      -2.881514   -1.860740   -0.686923
N      -1.909209   -1.523981    0.123917
H       0.753186    1.919696    0.595559
H      -0.385656    1.956902   -0.764213
H      -0.980522    1.691028    0.888562
H       1.351457   -1.420287   -1.083441
H       2.171985    0.111686   -0.523709
H       1.251309   -0.287233    1.829985
H       0.446574   -1.815581    1.240991
H      -3.304926   -1.231038   -2.696360
