20

C      -0.080176    1.449430    0.120793
N      -0.081366    0.000623    0.193781
C       0.817587   -0.699727    0.933604
O       1.699356   -0.133401    1.587167
C       0.677333   -2.189400    0.935376
C      -0.466952   -2.833489    0.178732
C       2.012451   -2.947544    1.006008
C       1.166844   -2.867063    2.233117
O       1.535630   -2.146365    3.348778
H       0.113848    1.796091   -0.900376
H      -1.038627    1.861338    0.454646
H       0.712769    1.810326    0.775615
H      -0.766209   -0.505161   -0.340542
H      -0.393332   -2.666126   -0.903901
H      -0.459366   -3.916641    0.330356
H      -1.443078   -2.469591    0.521235
H       2.075189   -3.880432    0.455037
H       2.904945   -2.332061    0.988857
H       0.605375   -3.753684    2.514586
H       1.839398   -1.278572    3.020524
