18

C      -0.156917    1.496940    0.064280
C       0.144800    0.036818   -0.005215
O      -0.699239   -0.884251    0.727820
C       0.720879   -0.908893    0.971019
C       1.303638   -1.799310   -0.147513
O       0.868849   -3.128141   -0.185618
C       0.697973   -0.784491   -1.161257
C       0.141986   -0.999062   -2.508418
N       1.438424   -0.302887   -2.321584
H       0.706336    2.088180   -0.258472
H      -1.005959    1.754372   -0.579075
H      -0.409752    1.783452    1.088056
H       1.052407   -0.761444    1.993015
H       2.395509   -1.799661   -0.190844
H      -0.087188   -3.096783   -0.049918
H       0.219794   -1.982570   -2.962914
H      -0.726280   -0.418974   -2.811147
H       1.309001    0.701227   -2.433005
