15

C      -0.041030    1.579982    0.012361
C       0.012491    0.072558    0.012640
O      -1.165825   -0.576383   -0.398747
C       1.311940   -0.667328   -0.280798
O       2.505279    0.034093   -0.444264
C       0.701225   -0.690477    1.110886
O       1.375122    0.071546    2.081979
H       0.903048    2.014855    0.342607
H      -0.242272    1.948857   -1.000347
H      -0.839163    1.933449    0.671812
H      -1.258911   -0.434146   -1.348009
H       1.251923   -1.561801   -0.894973
H       2.729737    0.384338    0.429400
H       0.202087   -1.587122    1.469672
H       1.948701   -0.525001    2.575304
