11

O       0.085413    1.297959   -0.089544
C       0.070610   -0.031805   -0.055601
N       0.037885   -0.752276   -1.153247
N       0.034403   -2.024646   -0.638775
C       0.003448   -3.187867   -1.424460
O      -0.023244   -3.207687   -2.618275
C       0.065239   -1.969071    0.725279
N       0.088811   -0.727863    1.133453
H       0.109286    1.606403    0.824793
H       0.007276   -4.082985   -0.775560
H       0.068701   -2.851689    1.347899
