19

O      -0.089965    1.485933    0.010912
C       0.033974    0.072303    0.002063
C      -1.370755   -0.516770    0.012326
C      -1.374110   -2.046453    0.004149
C      -2.804496   -2.622385    0.014773
C      -2.849560   -4.076247    0.007144
C      -2.879372   -5.284390    0.001004
C      -2.880152   -6.723138   -0.006766
O      -3.875100   -7.412216   -0.000417
H       0.792978    1.866771    0.004332
H       0.577480   -0.275478   -0.891936
H       0.594476   -0.285082    0.881669
H      -1.896996   -0.141079    0.898617
H      -1.913793   -0.131644   -0.859667
H      -0.847896   -2.422662   -0.881106
H      -0.831214   -2.432068    0.875162
H      -3.346570   -2.256641    0.897302
H      -3.363371   -2.247323   -0.853212
H      -1.867197   -7.175585   -0.019263
