14

O      -0.498457    0.575552    0.775498
C      -0.068305    1.169274   -0.176303
C       1.367282    1.664256   -0.284756
N       1.419339    2.827097   -1.163318
C       1.409014    4.141530   -0.546770
C       2.652011    3.621217   -1.208471
C       3.786831    3.270594   -0.388430
N       4.706848    2.972002    0.245764
H      -0.689676    1.388099   -1.072339
H       1.771398    1.827745    0.724185
H       1.953737    0.858191   -0.746911
H       0.825682    4.905282   -1.051932
H       1.423472    4.202332    0.539670
H       2.919997    3.981326   -2.197775
