18

C      -0.158742    1.685377    0.078603
C       0.045220    0.192704    0.096255
C      -1.011887   -0.738293   -0.430025
C      -1.019355   -1.898011    0.231389
C       0.010181   -1.936274    1.340419
C       0.721970   -0.592215    1.208589
N       1.418580   -0.310979   -0.028051
C       1.881767   -1.245677   -0.932293
O       2.467532   -2.261280   -0.640021
H       0.682055    2.195337    0.554758
H      -0.240359    2.056735   -0.949082
H      -1.079571    1.954833    0.605854
H      -1.658883   -0.472707   -1.258009
H      -1.648925   -2.748491   -0.004033
H      -0.457997   -2.031533    2.327584
H       0.705923   -2.774510    1.226230
H       1.121975   -0.103923    2.092116
H       1.720228   -0.921303   -1.978790
