18

C       0.026986    1.479690   -0.063884
C      -0.005189   -0.013843    0.038172
N       0.571047   -0.945450   -1.045818
C       0.054854   -1.919131    0.010151
C       0.684562   -0.967050    1.075578
C       2.201040   -0.927226    1.210342
O       2.687937   -2.046202    1.940880
C      -1.191157   -1.010449    0.056284
O      -2.378263   -1.040846   -0.050608
H       1.050628    1.847492   -0.181266
H      -0.563682    1.823942   -0.918836
H      -0.399939    1.927171    0.838958
H      -0.027697   -0.955609   -1.876860
H       0.157438   -2.996973   -0.101981
H       0.209752   -1.005992    2.059492
H       2.673857   -0.843609    0.226369
H       2.485300   -0.047452    1.798055
H       2.605009   -2.821154    1.376589
