18

C       0.008609    1.485990    0.050031
C      -0.043575   -0.002966   -0.022130
C      -0.057873   -0.820476   -1.083130
C      -0.003254   -2.259062   -0.527221
N      -0.732696   -2.140830    0.758145
C       0.009773   -0.944171    1.212235
C       1.457972   -1.506052    1.171506
O       1.582913   -2.922676    1.331341
C       1.448987   -2.386011    0.011370
H       0.931463    1.829447    0.535391
H      -0.036158    1.940704   -0.943450
H      -0.820525    1.886727    0.647128
H      -0.020103   -0.545321   -2.129551
H      -0.362024   -3.061301   -1.171524
H      -1.688455   -1.858959    0.550288
H      -0.334355   -0.534505    2.162688
H       2.302855   -0.898889    1.480571
H       2.285959   -2.522275   -0.665881
