18

C      -1.344316    0.353124   -0.319075
O       0.024262    0.080795   -0.066961
C       0.640555   -0.748817   -1.013728
C       0.836117   -0.107237   -2.376887
C       1.553356    1.224098   -2.254223
O       1.181434    2.247379   -2.766663
C       1.706487   -1.631297   -0.433933
C       0.394116   -2.232975   -0.897520
H      -1.484072    0.982017   -1.208238
H      -1.922471   -0.572816   -0.444597
H      -1.720767    0.894214    0.551791
H       1.451514   -0.770591   -2.998671
H      -0.109102    0.055117   -2.903778
H       2.480797    1.189830   -1.639108
H       2.601005   -1.821458   -1.016810
H       1.865020   -1.551186    0.634853
H      -0.298383   -2.553842   -0.127719
H       0.384061   -2.836280   -1.798784
