17

C       0.169637    1.016858   -0.623783
C      -0.658553   -0.249380   -0.492855
O      -1.448718   -0.612268   -1.341641
N      -0.417989   -0.940071    0.679984
C      -1.026469   -2.090051    1.204505
N      -0.615710   -2.445936    2.356559
C      -2.079240   -2.804715    0.380657
C      -1.473779   -3.651324   -0.737187
O      -1.636561   -4.839894   -0.821808
H       1.238961    0.797532   -0.539241
H      -0.033242    1.467112   -1.594386
H      -0.087837    1.729122    0.167157
H       0.264338   -0.556709    1.320469
H      -1.093890   -3.289093    2.667862
H      -2.647098   -3.468572    1.035041
H      -2.742753   -2.075481   -0.091993
H      -0.880828   -3.084874   -1.480945
