26

C       0.030960    1.662190   -0.022530
C       0.014657    0.128641    0.002738
N       0.616327   -0.350060   -1.249652
C       0.028849   -1.515704   -1.899282
C      -0.157361   -0.156792   -2.471261
C       0.749006   -0.490310    1.235820
C       0.024301   -0.071892    2.530250
C       0.712816   -2.029338    1.151585
C       2.219008   -0.034295    1.292936
H       1.050160    2.040111   -0.137561
H      -0.556542    2.032965   -0.867252
H      -0.398602    2.086240    0.887490
H      -1.042209   -0.198613    0.063421
H       0.729363   -2.217941   -2.343206
H      -0.841703   -1.976253   -1.435224
H      -1.153281    0.276757   -2.386423
H       0.402422    0.164871   -3.345150
H      -1.034450   -0.355367    2.505175
H       0.477901   -0.569400    3.394160
H       0.081063    1.005356    2.709593
H       1.289583   -2.402065    0.302135
H       1.140581   -2.465256    2.060909
H      -0.313526   -2.403165    1.059607
H       2.306787    1.035591    1.505210
H       2.752598   -0.568842    2.086290
H       2.720609   -0.235495    0.342813
