18

C      -0.129660    1.472014    0.146864
C      -0.095541   -0.051604   -0.028488
C      -1.488983   -0.593822   -0.369939
C       0.985012   -0.503525   -1.062940
O       1.918515   -1.301391   -0.299158
C       1.439271   -1.303480    0.961722
C       2.200253   -2.060210    1.999089
O       3.214426   -2.669790    1.783960
N       0.368035   -0.672139    1.235123
H       0.860511    1.856301    0.408914
H      -0.453451    1.957365   -0.780201
H      -0.824795    1.747812    0.944075
H      -1.848186   -0.162509   -1.310526
H      -1.468370   -1.682454   -0.476164
H      -2.199755   -0.341422    0.421247
H       0.580354   -1.128581   -1.864151
H       1.534999    0.331967   -1.505332
H       1.722506   -1.997010    2.995804
