12

N      -0.311975   -1.158552   -0.311875
C      -0.197421   -0.020179   -0.151352
C      -0.073628    1.407613    0.065719
C       0.084201    1.923732    1.521751
O       1.245519    2.699871    1.154185
C       1.311391    2.109069   -0.151495
C       2.472461    1.231754   -0.323680
N       3.395884    0.552785   -0.466277
H      -0.859518    1.931787   -0.480884
H      -0.727783    2.551729    1.895966
H       0.325227    1.142128    2.248891
H       1.315713    2.865636   -0.942799
