17

C      -0.007505    0.013727    1.300318
C      -0.002968    0.630747    0.268179
C       0.038494    1.360769   -1.007583
N       1.260075    2.105297   -1.277866
C       1.548144    3.213898   -0.459521
C       0.727128    3.823133    0.467764
N       1.404029    4.922400    0.957577
C       2.635290    5.009845    0.373515
C       2.758247    3.968183   -0.516430
H      -0.012733   -0.523870    2.215998
H      -0.112395    0.650623   -1.828823
H      -0.801446    2.065112   -1.054988
H       2.057452    1.488627   -1.369095
H      -0.248677    3.559526    0.837256
H       1.049580    5.545283    1.660095
H       3.318942    5.804276    0.625992
H       3.606733    3.768171   -1.152925
