19

C      -0.273355    1.527839    0.312962
C      -0.064512    0.047547    0.094187
C       1.195029   -0.484912   -0.523652
C       0.905510   -0.767612    0.943351
C       1.703282   -0.072676    1.930943
N       2.333922    0.434297    2.759484
N       0.488274   -2.114496    1.245679
C       1.396577   -2.998542    1.974808
C       0.164493   -2.470770    2.626072
H       0.657549    2.029709    0.591717
H      -0.647115    1.997881   -0.602623
H      -1.002490    1.711635    1.108508
H      -0.960204   -0.522682   -0.132543
H       1.132194   -1.347196   -1.176471
H       1.992393    0.215148   -0.747127
H       1.436856   -4.020285    1.609717
H       2.344234   -2.590891    2.318740
H       0.304667   -1.717325    3.397645
H      -0.712408   -3.099585    2.746607
