17

C      -0.041652    1.643058    0.050076
C       0.001052    0.119320    0.027513
C       0.622527   -0.550195   -1.266557
N       1.649289   -1.130154   -0.376380
C       1.140489   -0.574109    0.775831
C       1.940598   -1.002576    1.796710
N       2.935553   -1.819693    1.260753
C       2.723675   -1.874778   -0.034955
O       3.445270   -2.555224   -0.943235
H       0.935395    2.067693   -0.200562
H      -0.779690    2.025911   -0.662961
H      -0.318242    2.004790    1.045221
H      -0.987475   -0.290038    0.259468
H       0.000995   -1.298704   -1.763401
H       1.028721    0.148610   -2.002549
H       1.898291   -0.804325    2.855300
H       4.147271   -2.995395   -0.447595
