19

O      -0.095099    1.440671   -0.159812
C       0.052224    0.038682    0.012613
C      -1.333831   -0.570538    0.037835
C      -2.159875   -0.610423   -1.283833
C      -2.619508   -2.058479   -0.924193
O      -2.570538   -3.065868   -1.904584
C      -1.475143   -2.096734    0.082062
C      -0.446561   -3.132496    0.188531
O      -1.416913   -2.919954    1.227486
H       0.781391    1.835953   -0.177608
H       0.635153   -0.406547   -0.810058
H       0.575497   -0.195790    0.954231
H      -1.912012   -0.112259    0.847250
H      -2.931428    0.148661   -1.416857
H      -1.508348   -0.629672   -2.161811
H      -3.585540   -2.050447   -0.399566
H      -3.397584   -3.057987   -2.395512
H      -0.565641   -4.052409   -0.379429
H       0.576791   -2.864184    0.447197
