19

C      -0.045338    1.339946    0.001991
O       0.019433   -0.087624    0.054846
C       0.681278   -0.588826    1.092473
N       1.238814    0.086210    2.022659
C       1.829819   -0.890409    2.945558
C       1.442006   -2.266527    2.388794
C       0.005942   -2.614511    2.242536
C      -1.119201   -1.904594    2.955769
N       0.756978   -2.011117    1.093466
H       0.959837    1.768111   -0.040528
H      -0.603878    1.578185   -0.903660
H      -0.555155    1.736043    0.884744
H       2.920208   -0.776232    2.967186
H       1.472802   -0.718390    3.968923
H       2.184319   -3.058870    2.386111
H      -0.206107   -3.661523    2.036108
H      -0.896406   -0.853981    3.152593
H      -2.041021   -1.956481    2.367223
H      -1.309007   -2.397800    3.915166
