16

O       0.208824    1.373744    0.243785
C       0.032875   -0.004967    0.078130
C      -0.454592   -0.769223    1.296794
C      -1.366210   -0.590836    0.123580
C       1.046290   -0.710750   -0.771993
O       0.977717   -1.891403   -1.012416
C       2.191722    0.175207   -1.293140
C       3.193023   -0.568878   -2.045097
N       4.000425   -1.135193   -2.645138
H      -0.291867    1.832815   -0.439289
H      -0.020784   -1.747787    1.462888
H      -0.627291   -0.159768    2.175633
H      -2.174878    0.126127    0.213309
H      -1.550312   -1.446214   -0.515568
H       1.772327    0.971079   -1.919908
H       2.653809    0.693228   -0.445529
