20

C      -0.046049    1.532288   -0.012717
C       0.104683    0.013733    0.007410
C       0.944265   -0.550336   -1.169863
N       1.495269   -1.766426   -0.601985
C       2.143821   -2.870692   -1.086022
C       2.507371   -3.635209    0.004458
C       2.071738   -2.959721    1.183404
C       1.451527   -1.802719    0.768962
C       0.797816   -0.555502    1.281632
H       0.930672    2.025011    0.052093
H      -0.534459    1.875039   -0.931269
H      -0.650659    1.877303    0.831993
H      -0.889185   -0.444544   -0.057303
H       0.340425   -0.757269   -2.058759
H       1.744552    0.145788   -1.459016
H       2.278524   -3.029916   -2.143824
H       3.017715   -4.585870   -0.038529
H       2.196950   -3.293614    2.201998
H       1.538451    0.160661    1.666189
H       0.081416   -0.734129    2.089066
