16

C      -0.016905   -1.106515   -0.047626
C      -0.007356    0.095203    0.016140
C       0.047225    1.510224    0.098732
C      -0.924745    2.395232    0.824996
C      -0.064715    3.650788    1.067539
C       1.367060    3.159411    1.402692
C       1.283832    2.442524    0.032986
C       0.235249    3.488012   -0.459161
N      -0.874252    2.447998   -0.668843
H      -0.035428   -2.166251   -0.109322
H      -1.790988    2.022393    1.357365
H      -0.522960    4.525425    1.523670
H       2.089247    3.981800    1.383048
H       1.515137    2.551963    2.300089
H       2.150460    2.110760   -0.533148
H       0.394499    4.278506   -1.187840
