17

O       0.144021    1.432508   -0.073631
C       0.070461    0.051217   -0.071856
C       0.054212   -0.700759    1.300808
N      -1.326676   -0.092665    1.493098
C      -1.333587   -0.630302    0.067531
C      -0.624936   -1.897784    0.580600
O       0.093970   -2.657012   -0.369343
C       0.531286   -3.875176    0.015306
N       1.262266   -4.553812   -0.755205
H      -0.460055    1.724342    0.625082
H       0.730364   -0.345068   -0.839935
H       0.798116   -0.704054    2.098324
H      -1.901078   -0.681385    2.104169
H      -2.209708   -0.550355   -0.576118
H      -1.233733   -2.539312    1.228946
H       0.175691   -4.171094    1.012283
H       1.484097   -5.449603   -0.325789
