20

C      -0.241205    1.608388   -0.525798
C       0.045509    0.188827   -0.069470
C       1.115110   -0.648541   -0.880041
C       1.874477   -0.715288    0.432899
C       2.802697   -1.172622    1.336899
C       2.387156   -0.623268    2.595032
C       1.225145    0.120736    2.433255
C       0.402813    0.883521    3.417518
N       0.960686    0.056555    1.087840
H       0.690056    2.158803   -0.690079
H      -0.808482    1.595305   -1.462369
H      -0.834115    2.149720    0.218519
H      -0.887369   -0.364874    0.086140
H       0.742910   -1.598262   -1.274333
H       1.592435   -0.091425   -1.692305
H       3.660616   -1.801957    1.160313
H       2.905733   -0.743297    3.536025
H       0.381566    1.959003    3.200478
H      -0.638880    0.538702    3.444311
H       0.815853    0.757863    4.421385
