21

C      -0.909754    1.064621   -0.010072
C       0.119317   -0.061064   -0.028237
C       1.261405    0.107342   -1.060500
C       2.400503   -0.656395   -0.435602
C       2.203553   -0.917524    0.857045
C       3.122646   -1.604556    1.814120
C       0.862692   -0.341780    1.324096
C       1.072595    0.835322    2.167733
C       1.266901    1.796061    2.865590
H      -0.445425    2.021039    0.247200
H      -1.381700    1.167494   -0.993021
H      -1.701618    0.872598    0.721479
H      -0.392421   -0.999894   -0.271860
H       0.975809   -0.268922   -2.049647
H       1.526243    1.166531   -1.196532
H       3.297126   -0.929478   -0.982996
H       4.052510   -1.911187    1.327690
H       3.373474   -0.944811    2.653588
H       2.652791   -2.497589    2.246533
H       0.299789   -1.077168    1.915325
H       1.433349    2.644320    3.482145
