14

C       0.015016    1.468674    0.005848
N      -0.018192    0.019386    0.036282
C      -0.126781   -0.854625   -1.027589
N      -0.130107   -2.120114   -0.685061
N      -0.017516   -2.045707    0.670297
N       0.043198   -2.937480    1.684145
C       0.148623   -2.103503    2.722527
N       0.160421   -0.756550    2.459122
C       0.052295   -0.784455    1.143221
H       0.951334    1.837974    0.432612
H      -0.061251    1.800218   -1.030778
H      -0.820716    1.881651    0.576994
H      -0.201435   -0.509244   -2.046333
H       0.221212   -2.488393    3.728804
