14

O      -0.862690    0.853530   -0.483347
C       0.147249    0.890598    0.168294
C       1.278879    1.886311   -0.061411
N       2.578866    1.180691   -0.047073
C       3.194038    1.533342   -1.104387
N       2.596937    2.483160   -1.983331
C       1.388204    1.897308   -2.637237
C       1.250791    2.658842   -1.377209
H       0.333987    0.191697    1.010922
H       1.250186    2.573989    0.798699
H       4.178541    1.154729   -1.363805
H       1.118585    2.364791   -3.578118
H       1.279974    0.817543   -2.605333
H       0.844108    3.662806   -1.398777
