16

C      -0.027737    1.543714   -0.105603
C      -0.084279    0.037873    0.089797
O      -0.269354   -0.474848    1.177187
N       0.080152   -0.702649   -1.054401
C       0.049713   -2.099177   -1.113339
C      -0.136500   -2.997885   -0.102676
O      -0.091731   -4.265289   -0.609465
C       0.122821   -4.166025   -1.940544
C       0.219507   -2.865087   -2.316244
H       0.244046    1.850096   -1.119085
H      -1.005382    1.968127    0.140421
H       0.695277    1.960702    0.599498
H       0.229530   -0.216646   -1.922772
H      -0.300849   -2.893670    0.951706
H       0.182563   -5.095463   -2.481965
H       0.388852   -2.489433   -3.313736
