18

C      -0.074343    1.406836   -0.255895
C      -0.024232   -0.097592   -0.065157
O      -1.365553   -0.594017   -0.091357
C      -1.477580   -1.954532    0.131062
C      -2.956077   -2.348847    0.089984
O      -3.128402   -2.869303   -1.228304
C      -1.907260   -3.113240   -1.782523
N      -1.669321   -3.633731   -2.899991
O      -0.918288   -2.723229   -0.936259
H       0.937831    1.821153   -0.239105
H      -0.534410    1.656317   -1.215906
H      -0.657383    1.880090    0.539198
H       0.560977   -0.578159   -0.857978
H       0.439446   -0.358406    0.899368
H      -0.945523   -2.256867    1.042172
H      -3.198439   -3.121411    0.826845
H      -3.601661   -1.480244    0.224990
H      -2.540374   -3.890324   -3.358538
