17

O       0.053513    1.399095    0.094070
C       0.065479    0.000428   -0.063730
C      -1.358670   -0.570044   -0.015717
C      -1.410745   -2.095439   -0.126616
C      -2.812781   -2.567010    0.239324
O      -3.207482   -2.075430    1.532314
C      -2.753625   -0.847322    1.862736
N      -1.962157   -0.088727    1.232071
H      -0.552741    1.558341    0.831614
H       0.527707   -0.219492   -1.032790
H       0.670020   -0.493226    0.717012
H      -1.915541   -0.115760   -0.847320
H      -1.157816   -2.434018   -1.136601
H      -0.685430   -2.543405    0.563390
H      -3.546214   -2.215241   -0.497126
H      -2.884533   -3.654967    0.304296
H      -3.172203   -0.544897    2.821133
