16

O       0.051804    0.010308    0.222165
C       0.021037    1.184548   -0.026699
O      -1.180318    1.807491   -0.183589
C      -1.224583    3.028934   -0.943184
C      -0.298084    4.095384   -0.374922
C       1.120073    3.545070   -0.253247
C       1.563595    2.954231    1.051044
C       1.244034    2.039818   -0.122247
H      -0.961674    2.806359   -1.985358
H      -2.271329    3.340283   -0.916599
H      -0.315905    4.968982   -1.034250
H      -0.674685    4.424100    0.599673
H       1.879644    4.034963   -0.853012
H       2.605450    3.030230    1.339577
H       0.863715    2.974713    1.880096
H       2.083728    1.527439   -0.575251
