17

C      -0.089978    1.407012   -0.008074
C       0.032914   -0.100561    0.070414
C       1.388390   -0.689795   -0.218898
C       0.822988   -0.666827    1.214242
C       0.814679   -2.222011    1.242134
C       1.365563   -2.229075   -0.187299
O       0.139516   -2.879688   -0.671434
C      -0.393256   -2.926567    0.607426
O      -1.434083   -3.396568    0.933235
H       0.818719    1.901439    0.351213
H      -0.262510    1.731634   -1.039131
H      -0.927389    1.761259    0.601422
H      -0.846231   -0.636173   -0.278655
H       2.185674   -0.100714   -0.654990
H       1.126766   -0.060554    2.057905
H       1.305895   -2.706936    2.082382
H       2.255509   -2.770196   -0.501064
