21

C      -0.270281    1.421679    0.011936
C       0.046068   -0.086710    0.081808
C       0.628028   -0.548358   -1.177588
C       1.100614   -0.915342   -2.220267
C       0.955338   -0.441120    1.291037
O       2.188460    0.241329    1.236886
C       0.187670   -0.404736    2.653597
C       0.056922   -1.950208    2.583424
C       1.153473   -1.964214    1.484433
H       0.631956    2.000196   -0.209534
H      -0.987009    1.625924   -0.786809
H      -0.697941    1.777149    0.954486
H      -0.901708   -0.621813    0.233236
H       1.523327   -1.244338   -3.136987
H       2.019233    1.189246    1.257662
H       0.865179   -0.085589    3.449415
H      -0.732826    0.182472    2.712408
H       0.267915   -2.504155    3.499836
H      -0.918529   -2.270585    2.207889
H       1.002440   -2.596261    0.607289
H       2.147671   -2.153596    1.894780
