17

O      -0.721637    1.032944   -0.439264
C       0.211276    1.028568    0.323471
C       1.444174    1.900584    0.197996
C       1.536681    2.702293   -1.114269
C       2.188714    4.039749   -0.696051
N       1.923950    4.256785    0.740308
C       0.511641    4.116684    1.118827
C       1.454426    2.979618    1.294849
H       0.204160    0.372825    1.223965
H       2.322002    1.258947    0.350415
H       2.119229    2.178557   -1.875472
H       0.532945    2.839159   -1.522550
H       3.276483    3.997286   -0.816348
H       1.825629    4.892544   -1.277614
H       0.213823    4.710793    1.977472
H      -0.242073    4.040448    0.338520
H       1.814777    2.706687    2.282089
