15

O      -0.335367    1.283109    0.072833
C       0.033189   -0.070959   -0.005453
C       0.835961   -0.351452   -1.218071
N       1.463812   -0.561243   -2.164580
C       0.754423   -0.571271    1.251323
C      -0.091481   -1.100931    2.398365
C       0.719173   -2.055042    1.576520
C       1.934407    0.188481    1.576041
N       2.859621    0.841544    1.812796
H       0.466679    1.819264    0.125562
H      -0.904753   -0.629835   -0.095807
H       0.242150   -0.873253    3.403212
H      -1.166019   -1.068397    2.257791
H       0.210790   -2.691495    0.860385
H       1.611895   -2.488054    2.010280
