21

O       0.105711    1.406684    0.249546
C       0.060864    0.063515   -0.219456
C      -1.325068   -0.524301   -0.106272
C      -1.611271   -2.012806   -0.113430
C      -0.492144   -3.057389   -0.151158
C      -0.213319   -3.685455    1.229883
C      -0.170265   -2.653893    2.331891
C      -0.893508   -1.532922    2.291812
C      -1.806859   -1.224488    1.161984
H      -0.171691    1.392103    1.171423
H       0.367126    0.111982   -1.270525
H       0.794035   -0.560101    0.309143
H      -2.074514    0.093496   -0.594854
H      -2.517497   -2.300428   -0.636999
H      -0.756247   -3.843678   -0.865495
H       0.436682   -2.614622   -0.524039
H      -0.989574   -4.428154    1.466530
H       0.728939   -4.243771    1.198215
H       0.461725   -2.861564    3.191572
H      -0.848308   -0.824252    3.116611
H      -2.828991   -0.995125    1.454218
