20

C       0.024817    1.205673   -0.380280
O      -0.097496    0.073353    0.459686
C      -1.310519   -0.592781    0.299001
C      -1.438803   -1.709094   -0.736629
C      -0.309822   -2.049330   -1.684552
C      -1.381389   -2.030654    0.739060
C      -0.185545   -2.703301    1.371186
O      -2.623200   -2.460364    1.245706
H       0.999528    1.655084   -0.175539
H      -0.032107    0.934469   -1.443330
H      -0.760420    1.947217   -0.169431
H      -2.194259    0.021255    0.481251
H      -2.438000   -1.815390   -1.150147
H       0.656795   -1.729561   -1.287972
H      -0.258521   -3.127116   -1.873482
H      -0.452344   -1.552412   -2.650118
H       0.753549   -2.299054    0.991314
H      -0.193526   -2.541874    2.456336
H      -0.213130   -3.782632    1.191055
H      -2.660953   -2.211443    2.176673
