21

C      -0.225301    1.585383    0.006655
C       0.058470    0.086570   -0.010636
C       1.211534   -0.484976   -0.903685
C       1.777030   -1.252876    0.304065
C       2.292764   -2.662909    0.255246
C       2.170368   -0.268735    1.362019
O       2.789791    0.941489    1.010142
C       0.706543   -0.589369    1.203025
O      -0.020723   -1.195077    2.220565
H       0.693291    2.157681    0.157088
H      -0.673387    1.910648   -0.938833
H      -0.930578    1.843482    0.805808
H      -0.863943   -0.459661   -0.235345
H       0.851524   -1.143935   -1.697274
H       1.886384    0.259611   -1.332156
H       3.263989   -2.712113   -0.251619
H       2.418912   -3.073777    1.261745
H       1.601609   -3.317539   -0.287463
H       2.596732   -0.749187    2.245547
H       2.585740    1.593465    1.688570
H      -0.114187   -0.571832    2.949055
