19

C       0.032330    1.337582   -0.036512
O       0.167134   -0.064869   -0.053316
C       0.575304   -0.594567    1.192409
C       0.614648   -2.085281    1.072660
N       1.163596   -2.922545    1.923224
C       0.921158   -4.184356    1.414170
C       1.399934   -5.414808    2.113594
C       0.219083   -4.085666    0.239692
N       0.024393   -2.735107    0.036128
H       0.985663    1.833201    0.201817
H      -0.287636    1.646811   -1.034162
H      -0.719469    1.664983    0.698183
H       1.568511   -0.219614    1.483910
H      -0.127852   -0.290044    1.986949
H       0.970070   -5.491551    3.118418
H       1.126754   -6.315504    1.556820
H       2.488993   -5.403230    2.231579
H      -0.143898   -4.826089   -0.453623
H      -0.422045   -2.277452   -0.740561
