15

O      -0.297547    0.017373   -0.386272
C       0.004448    1.125370   -0.029970
C       1.356486    1.767266   -0.261976
C       1.219781    3.113116   -1.009726
C       2.530210    3.818428   -1.159366
N       2.835782    4.880966   -0.461067
O       4.098551    5.236214   -0.842282
N       4.588814    4.386912   -1.791766
C       3.644065    3.513255   -1.996949
H      -0.722870    1.774085    0.512398
H       1.813477    1.954620    0.719044
H       1.989373    1.061768   -0.806998
H       0.786582    2.936581   -2.000628
H       0.535246    3.772949   -0.468253
H       3.770882    2.716688   -2.713940
