13

C      -0.001415    1.469465    0.034260
C      -0.003237    0.018335   -0.000514
C      -0.007234   -1.191614   -0.028507
C      -0.012252   -2.550864   -0.059675
C      -0.020871   -3.760588   -0.085437
C       0.006707   -5.214169   -0.134341
O      -1.193050   -5.738502    0.420839
H       0.788658    1.850679    0.691088
H       0.161769    1.890554   -0.964257
H      -0.957660    1.855230    0.405489
H       0.135395   -5.532880   -1.182298
H       0.892485   -5.572305    0.416554
H      -1.135823   -6.698279    0.370090
