20

C      -0.039772    1.526867    0.060597
C       0.009246    0.008111   -0.014782
C       0.698851   -0.514120   -1.279841
C       0.775732   -2.050747   -1.254037
C       1.299397   -2.534633    0.072512
C       0.728221   -1.850682    1.294528
O       0.711448   -0.440585    1.141116
N       2.169577   -3.467703    0.067531
O       2.542363   -3.865204    1.364161
H       0.972992    1.941216    0.041665
H      -0.599364    1.936328   -0.785685
H      -0.522879    1.847473    0.987243
H      -1.021128   -0.393082    0.016839
H       0.158231   -0.177087   -2.171076
H       1.708648   -0.088874   -1.323477
H      -0.238592   -2.454661   -1.392209
H       1.394024   -2.448618   -2.062263
H      -0.294209   -2.229764    1.474439
H       1.331637   -2.066476    2.175306
H       3.229536   -4.514699    1.183416
