18

C      -0.102541    1.593444    0.014826
C       0.064119    0.082214    0.029036
O      -1.201635   -0.570080   -0.085828
C       1.136740   -0.588132   -0.904313
C       1.722002   -1.323232    0.307526
C       2.187031   -0.303177    1.328557
C       0.732537   -0.594845    1.232958
O       0.012380   -1.000119    2.331927
H       0.856221    2.101116    0.152212
H      -0.518211    1.932210   -0.942994
H      -0.780585    1.907539    0.814124
H      -1.665755   -0.205545   -0.846030
H       0.653765   -1.246931   -1.629080
H       1.819609    0.091934   -1.426688
H       2.078861   -2.345115    0.322021
H       2.648398   -0.730543    2.213537
H       2.613775    0.650089    1.019852
H      -0.828748   -1.328595    1.987002
