27

C       0.053775    1.613569    0.016162
C      -0.014039    0.078419   -0.005711
C       0.648255   -0.466358   -1.289433
C       0.142907   -1.829344   -1.799979
C      -0.173314   -2.892373   -0.731170
C       0.785754   -2.951933    0.470064
C       0.437758   -1.967943    1.604828
C       1.215523   -2.322216    2.881177
C       0.652318   -0.481882    1.267434
H       1.094870    1.958931    0.000273
H      -0.451022    2.045754   -0.854148
H      -0.416506    2.023179    0.916432
H      -1.076324   -0.206447   -0.003423
H       0.518510    0.261093   -2.099902
H       1.731278   -0.515151   -1.114913
H      -0.761801   -1.674893   -2.401367
H       0.893596   -2.227825   -2.494006
H      -1.189112   -2.734502   -0.346589
H      -0.198658   -3.869977   -1.226626
H       0.753439   -3.964536    0.890747
H       1.824276   -2.798809    0.143614
H      -0.633008   -2.104983    1.820876
H       2.296645   -2.236090    2.718058
H       0.952768   -1.654199    3.708346
H       1.009748   -3.349191    3.200797
H       1.733516   -0.287032    1.195569
H       0.303965    0.102770    2.129214
