15

N      -0.307757   -0.832499    0.690531
C      -0.193696    0.232920    0.242657
C      -0.025015    1.505718   -0.351817
C      -1.063516    2.374225   -0.536234
C      -1.822321    2.771136    0.722970
N      -0.819183    3.940488    0.770429
C       0.600273    3.697775    0.173132
C       1.240684    2.325523   -0.082147
C      -0.578679    3.814679   -0.689995
H      -2.804999    3.232431    0.603938
H      -1.809748    2.067424    1.557821
H       1.218299    4.554267    0.423697
H       1.761326    1.889633    0.776081
H       1.969985    2.415925   -0.897687
H      -0.865634    4.565648   -1.416162
