17

O      -0.014265    1.446209   -0.058509
C       1.261601    0.811345    0.003821
C       0.026054    0.012560    0.001096
C      -0.077575   -0.713345   -1.379645
C      -0.862892    0.191123   -2.316240
C      -0.033475    1.028370   -2.941241
C       1.395111    0.654411   -2.702158
C       2.010034    0.539924   -1.283042
C       1.370244   -0.648862   -1.954694
H       1.841353    1.031536    0.898373
H      -0.431987   -0.421812    0.886477
H      -0.474772   -1.723029   -1.258096
H      -1.942261    0.277824   -2.279168
H      -0.325072    1.871499   -3.555619
H       2.122563    0.829820   -3.488590
H       3.090452    0.628111   -1.242092
H       1.905559   -1.538134   -2.266256
