13

O      -0.068619    0.051152    0.103221
C      -0.068191    1.242271    0.095728
C      -1.139121    2.335753   -0.083705
C      -0.866527    3.226475    1.141479
N       0.481217    3.589198    0.553787
C       0.018283    3.163434   -0.766489
C       1.019885    2.296959   -0.017060
C       2.425160    2.149007   -0.187980
N       3.560129    1.986632   -0.336127
H      -2.123830    2.088544   -0.467949
H      -1.462510    4.140217    1.169199
H      -0.836752    2.756867    2.129162
H       0.156566    3.682510   -1.704459
