19

O      -0.579517    0.593226    0.571710
C       0.176771    0.944316   -0.299993
C       1.261633    1.980984   -0.163865
C       1.212760    3.122849   -1.237630
C       1.368787    4.365835   -0.326402
C       0.035209    4.658603    0.393545
C       0.021119    3.523869    1.461926
C       1.349306    2.801876    1.146629
O       2.203854    3.881218    0.735603
H       0.126191    0.477434   -1.311800
H       2.204030    1.431728   -0.293183
H       2.038897    3.041295   -1.946329
H       0.278491    3.138172   -1.806741
H       1.844815    5.222673   -0.803262
H       0.059548    5.646600    0.858525
H      -0.822659    4.626380   -0.283401
H       0.059002    3.934294    2.473275
H      -0.841312    2.862099    1.396324
H       1.801586    2.271479    1.983494
