15

O       0.074583    1.346227   -0.203096
C       0.059859   -0.055354   -0.034027
C      -1.365927   -0.559509    0.216014
O      -2.191856   -0.115979   -0.874524
C      -2.783030   -1.232765   -1.539131
C      -2.302844   -2.436351   -0.778296
C      -1.515603   -2.054535    0.220624
H      -0.609288    1.534391   -0.857810
H       0.471260   -0.578084   -0.912995
H       0.698401   -0.285120    0.826464
H      -1.737514   -0.093232    1.142050
H      -3.879488   -1.133602   -1.522952
H      -2.475800   -1.251353   -2.596386
H      -2.584993   -3.449290   -1.036123
H      -1.025858   -2.693428    0.944346
