20

O       0.279826    1.269007    0.109187
C       0.009097   -0.093520   -0.194116
C      -1.451234   -0.418614   -0.067654
C      -2.064897   -0.944239    1.173731
N      -1.957609   -1.852558    0.008997
C      -3.062145   -1.437959   -0.902361
C      -3.572702   -2.366944   -1.949031
C      -4.458137   -1.961857   -0.782704
C      -2.536237   -0.009124   -1.069196
H      -0.016627    1.427657    1.011693
H       0.341812   -0.236894   -1.227673
H       0.590267   -0.782730    0.437849
H      -1.400752   -1.226025    1.986304
H      -3.052243   -0.609384    1.483711
H      -3.795118   -1.965007   -2.932326
H      -3.172801   -3.375164   -1.946671
H      -4.651056   -2.705852   -0.016677
H      -5.283439   -1.283012   -0.972293
H      -3.187700    0.819114   -0.775904
H      -2.138049    0.187810   -2.067875
