24

C       0.401915    0.204835   -1.102790
C      -0.078722    0.151985    0.356624
C      -0.193009    1.560867    0.960035
C      -1.418150   -0.566433    0.427457
C      -1.566846   -2.055914    0.440595
C      -0.384924   -2.998510    0.420183
O      -0.082882   -3.253448   -0.948651
N      -1.939604   -1.259201    1.610046
C      -1.177237   -1.338996    2.847233
H       1.361914    0.726550   -1.179069
H       0.513739   -0.803054   -1.510673
H      -0.318280    0.745942   -1.728204
H       0.669236   -0.400926    0.935137
H      -0.501985    1.528004    2.009394
H       0.764624    2.089183    0.905527
H      -0.933706    2.157541    0.414738
H      -2.199597   -0.012285   -0.097729
H      -2.422644   -2.482171   -0.083480
H       0.482852   -2.577888    0.943637
H      -0.658289   -3.931863    0.938211
H       0.604361   -3.925659   -0.983650
H      -0.082748   -1.360665    2.745026
H      -1.434997   -0.477039    3.471484
H      -1.481243   -2.240870    3.389092
