15

C       0.003242    1.495093    0.023350
N      -0.039913    0.038891   -0.002215
C      -0.025180   -0.656188   -1.178515
C       0.012533   -2.012077   -1.221186
C       0.049931   -2.837148   -0.019608
O       0.084862   -4.061575   -0.001557
C       0.035941   -2.014809    1.196057
F       0.059352   -2.644326    2.367144
C      -0.003315   -0.662296    1.180356
H       1.006215    1.861399    0.269939
H      -0.280098    1.880425   -0.956838
H      -0.704181    1.878601    0.763409
H      -0.049587   -0.046986   -2.074296
H       0.011312   -2.520355   -2.177490
H      -0.011857   -0.083124    2.094920
