17

N       0.068709   -1.145823   -0.026557
C       0.051357    0.011011    0.003601
C       0.035519    1.440969    0.030825
C       0.327072    2.264173   -1.208666
C       1.198518    2.459510   -0.008096
C       0.462652    3.204329    1.114865
C      -0.564457    4.323395    0.793319
C      -1.648901    3.205971    0.759649
N      -0.626518    2.166082    1.136848
H       0.782991    1.698272   -2.013896
H      -0.371775    3.024063   -1.540275
H       2.260079    2.249486   -0.027834
H       1.041908    3.304222    2.035744
H      -0.690041    5.048584    1.598930
H      -0.400116    4.864720   -0.141069
H      -2.421477    3.288909    1.527481
H      -2.135609    3.032952   -0.204402
