22

C      -0.081833    1.458693   -0.235700
C       0.102396   -0.030565   -0.030575
C       1.486202   -0.644559    0.032858
O       2.610941    0.193636    0.039230
C       0.627868   -0.619887    1.269253
C       0.992963    0.232428    2.465409
N       1.720232   -0.572200    3.448823
C       3.165947   -0.664341    3.247016
C       2.602359    0.167777    4.345138
H       0.775963    2.025861    0.132169
H      -0.201759    1.690235   -1.300372
H      -0.975566    1.825529    0.280278
H      -0.646833   -0.638762   -0.531994
H       1.649486   -1.604354   -0.456384
H       2.745869    0.523244   -0.855424
H       0.202361   -1.576613    1.558325
H       1.572627    1.111831    2.146842
H       0.080400    0.598625    2.952805
H       3.607674   -1.632398    3.467465
H       3.586744   -0.152011    2.385468
H       2.657353    1.249383    4.229229
H       2.630841   -0.178967    5.374565
