13

N       0.081932    1.312335    0.147616
C      -0.049655   -0.049294    0.041514
N      -1.132881   -0.757493    0.013414
C      -0.640994   -2.067355    0.025885
C       0.713689   -2.027997    0.053516
N       1.179606   -3.304895   -0.027077
C       0.016076   -4.073469   -0.065350
N      -1.092119   -3.359198   -0.044502
O       1.166070   -0.746738    0.055486
H       0.883980    1.696543   -0.332036
H      -0.778666    1.794641   -0.068817
H       2.124592   -3.644812    0.015653
H       0.071777   -5.150518   -0.095012
