20

C      -0.148115    1.460313   -0.002491
C       0.028658   -0.040609    0.046067
C       1.384721   -0.666290   -0.196009
C       0.771461   -0.718344    1.170014
C       1.220515   -0.081958    2.492870
C       0.318727   -1.109298    3.239604
C       0.233104   -1.943894    1.929252
O      -0.990634   -2.518829    1.544116
H       0.732346    1.976995    0.392772
H      -0.296812    1.804361   -1.031940
H      -1.014624    1.787396    0.584302
H      -0.811463   -0.610584   -0.347040
H       1.435511   -1.587054   -0.769673
H       2.226791    0.003412   -0.349135
H       2.285463   -0.233183    2.693819
H       0.988106    0.974914    2.645465
H       0.724376   -1.600862    4.126441
H      -0.657774   -0.682281    3.491434
H       0.953342   -2.769130    1.927896
H      -1.652257   -1.818286    1.540242
