18

C       0.026642    1.478423    0.067987
C      -0.021635   -0.010032   -0.065438
C       0.657766   -0.952854   -1.101091
C       0.053565   -1.812684    0.033733
O       0.594706   -0.841092    1.014134
C      -1.224794   -0.974074   -0.037862
C      -2.485507   -0.979595    0.741128
C      -2.509047   -1.066189   -0.785924
H       1.062869    1.824800    0.123044
H      -0.451244    1.953105   -0.795001
H      -0.494548    1.798939    0.975337
H       0.214474   -1.025594   -2.097470
H       1.748110   -0.909483   -1.111004
H       0.183049   -2.873020    0.250227
H      -2.746792   -1.870065    1.303805
H      -2.817836   -0.053217    1.199451
H      -2.856368   -0.197306   -1.336960
H      -2.785672   -2.014673   -1.235929
