20

O       0.018396    1.326652    0.375099
C       0.063309   -0.025936   -0.058404
C      -1.303494   -0.615921   -0.213996
C      -2.359003   -0.247497   -1.265612
C      -2.903813   -1.714848   -1.179003
C      -1.823339   -2.015624   -0.131201
C      -1.164832   -3.332741    0.137167
O      -2.062506   -4.276099    0.706107
N      -2.081774   -1.054729    0.985803
H      -0.557293    1.364136    1.146620
H       0.581927   -0.007934   -1.023245
H       0.664848   -0.649839    0.624406
H      -3.046231    0.549277   -0.974698
H      -1.922070   -0.015669   -2.239563
H      -3.932280   -1.837031   -0.833929
H      -2.760601   -2.274306   -2.106224
H      -0.820178   -3.783623   -0.799916
H      -0.276542   -3.184196    0.774509
H      -2.493732   -3.849939    1.454772
H      -1.390444   -1.268590    1.709689
