16

N      -0.185129   -1.156106    0.177853
C      -0.098585   -0.003851    0.138413
C       0.007145    1.432503    0.049205
N       0.557357    2.130467    1.230188
C       1.340893    2.121539   -0.005455
C       2.632503    1.378729    0.001615
C       3.483159    1.353651   -1.244801
C       3.933587    2.143683   -0.044238
H      -0.812526    1.895501   -0.493831
H       0.070182    3.013092    1.360510
H       1.344603    3.032616   -0.604615
H       2.616897    0.477472    0.605082
H       3.999172    0.431971   -1.486936
H       3.131514    1.904397   -2.111353
H       3.885540    3.226380   -0.101265
H       4.762082    1.768185    0.545122
