22

C      -0.064286    1.312330   -0.159005
O       0.082869   -0.078639    0.024064
C       0.749638   -0.538715    1.207984
C       2.182923    0.013114    1.300396
C      -0.047144   -0.169009    2.469360
C       0.742081   -2.072982    1.053593
C       1.404777   -2.566552   -0.248116
C       1.284077   -4.012717   -0.410512
N       1.183252   -5.158563   -0.523461
H       0.899365    1.832828   -0.245816
H      -0.609734    1.442150   -1.097165
H      -0.644680    1.786297    0.644119
H       2.186872    1.080695    1.536935
H       2.735472   -0.497297    2.095122
H       2.724885   -0.123986    0.360614
H      -1.083424   -0.506706    2.377982
H       0.394054   -0.642130    3.351944
H      -0.048575    0.910381    2.645040
H       1.238214   -2.526560    1.917148
H      -0.298533   -2.411162    1.063412
H       0.935868   -2.067712   -1.100876
H       2.469165   -2.309848   -0.270691
