25

C       0.036446    1.532959   -0.177992
C       0.047949    0.005910   -0.040815
C      -1.352377   -0.589532    0.054240
C      -2.277197   -0.585239   -1.202630
C      -2.683701   -2.059635   -0.917755
C      -1.924212   -3.108534   -1.757844
C      -0.722584   -3.020826   -0.770154
C      -1.568660   -2.126128    0.196753
C      -1.792892   -2.680168    1.587832
H       1.051437    1.934785   -0.257898
H      -0.515987    1.845902   -1.070752
H      -0.442294    2.004481    0.687617
H       0.579219   -0.425810   -0.898367
H       0.625189   -0.276947    0.850034
H      -1.879619   -0.101955    0.885293
H      -3.091043    0.143266   -1.184263
H      -1.738194   -0.462710   -2.149084
H      -3.740592   -2.234191   -0.706048
H      -2.403830   -4.091311   -1.741674
H      -1.728349   -2.842998   -2.801502
H      -0.421797   -3.977347   -0.334541
H       0.174162   -2.546466   -1.176121
H      -0.869958   -2.643781    2.181052
H      -2.556486   -2.108729    2.128068
H      -2.118942   -3.726434    1.556020
