20

C       0.026815   -1.192508    0.080212
C       0.023433    0.007318    0.000323
C      -0.039447    1.448273   -0.086844
C       0.482926    2.114844   -1.321609
N       1.282233    2.126375   -0.107173
C       1.455220    3.413782    0.594889
C       0.344273    3.774981    1.587480
C      -1.038577    3.551365    0.971816
C      -1.223422    2.060535    0.666159
H       0.049999   -2.251921    0.146343
H       0.868953    1.510868   -2.138767
H      -0.006197    3.038419   -1.630067
H       2.416920    3.370935    1.118237
H       1.543032    4.206516   -0.159331
H       0.437207    3.154570    2.488314
H       0.477598    4.814549    1.905488
H      -1.828023    3.877700    1.656555
H      -1.148720    4.156654    0.062982
H      -2.143266    1.875043    0.100660
H      -1.328431    1.520574    1.614300
