23

C      -0.031991    1.370979    0.193125
O      -0.009061   -0.022146    0.005243
C      -1.292497   -0.605769    0.064877
C      -1.157273   -2.108045   -0.142991
C      -2.503880   -2.834894   -0.092899
C      -2.375637   -4.350272   -0.299094
C      -3.708611   -5.053821   -0.233084
C      -3.872975   -6.388052    0.355323
O      -4.279147   -5.219411    1.069995
H       0.999169    1.728224    0.133365
H      -0.629055    1.880165   -0.580864
H      -0.446170    1.645837    1.176753
H      -1.765189   -0.394301    1.040486
H      -1.948985   -0.168000   -0.708376
H      -0.666640   -2.284205   -1.108296
H      -0.484580   -2.506856    0.626077
H      -2.991262   -2.653907    0.873257
H      -3.174906   -2.421147   -0.858528
H      -1.912928   -4.556328   -1.273975
H      -1.713208   -4.774350    0.465037
H      -4.435432   -4.746038   -0.988640
H      -4.680948   -7.036837    0.019287
H      -3.003540   -6.904774    0.760640
