18

C      -0.008406   -1.184153   -0.041033
C      -0.007177    0.018967    0.002924
C       0.016448    1.449895    0.039932
C       0.532101    2.181310    1.277219
C       1.343079    2.196882    0.027860
C       2.704560    1.551884   -0.255539
C       2.878648    2.551134   -1.438582
C       1.663192    3.369535   -0.908908
H      -0.021887   -2.245070   -0.072167
H      -0.799426    1.936592   -0.488958
H       0.005853    3.085160    1.568201
H       0.873752    1.567202    2.103723
H       3.425774    1.717773    0.550791
H       2.690728    0.487085   -0.500378
H       3.832495    3.078965   -1.497635
H       2.677888    2.087224   -2.407069
H       0.894899    3.647489   -1.635864
H       1.965490    4.269344   -0.363113
