19

C      -0.334030   -0.932967   -0.502312
C      -0.116253    0.242422   -0.376754
C       0.138598    1.677254   -0.256824
N       1.490589    1.962272    0.241080
C       2.572180    1.569226   -0.682884
C       3.080017    2.857428   -1.307074
N       1.984245    3.695364   -1.843548
C       2.543496    3.979635   -0.503931
C       1.704042    3.374274    0.608810
H      -0.529917   -1.971683   -0.601743
H      -0.065632    2.163093   -1.225064
H      -0.573262    2.095983    0.464588
H       3.392842    1.088652   -0.131912
H       2.198928    0.847370   -1.414002
H       4.060112    2.893647   -1.772034
H       2.367916    4.357688   -2.513334
H       3.102530    4.894613   -0.335651
H       0.745157    3.883537    0.745117
H       2.257748    3.445816    1.556164
