16

C      -0.095756    1.374667    0.105118
N      -0.001751   -0.063999    0.005511
C       0.230964   -0.815892   -1.094862
C       0.224689   -2.138664   -0.701938
C      -0.027130   -2.065765    0.680517
O      -0.139061   -3.154399    1.487048
C      -0.016977   -2.984597    2.834032
N      -0.255934   -3.966687    3.585798
N      -0.172387   -0.821027    1.115937
H       0.059269    1.805254   -0.885510
H      -1.082162    1.667296    0.475535
H       0.665874    1.760278    0.788731
H       0.381719   -0.361748   -2.061725
H       0.378846   -3.018019   -1.302924
H       0.296124   -1.976481    3.112902
H      -0.097390   -3.699933    4.555741
