15

O       0.001772    0.025614    0.002864
C      -0.014581    1.217854    0.009218
C      -1.124364    2.298789    0.096328
O      -1.568378    2.689135   -1.233090
C      -0.798658    3.922951   -1.193603
C      -0.044711    3.417759    0.021393
C       0.695275    3.929888    1.242048
O       1.498615    2.717323    1.267873
C       1.065157    2.329684   -0.065829
H      -1.943211    2.224161    0.817266
H      -0.227690    4.089898   -2.112711
H      -1.452375    4.784908   -1.006119
H       1.325020    4.811527    1.064239
H       0.120102    4.070829    2.162881
H       1.885578    2.285505   -0.787485
