15

C      -0.001268    1.424492    0.167289
C       1.317743    0.743839   -0.039274
C       1.762302    0.056839    1.262957
C       0.458161   -0.766711    1.200275
C       0.240676   -2.151973    1.609489
O      -0.380568   -1.061561    2.307109
C       0.009725   -0.067550   -0.057890
H      -0.265846    1.828374    1.141256
H      -0.368299    2.006534   -0.671923
H       1.966061    0.972707   -0.874498
H       2.655573   -0.563966    1.157316
H       1.878651    0.709073    2.134071
H      -0.438003   -2.788290    1.041525
H       1.015948   -2.682185    2.162477
H      -0.506176   -0.527618   -0.891627
