17

C       0.093761    1.454083    0.110619
N       0.000179    0.010596    0.252215
C      -1.057211   -0.610051   -0.019245
C      -1.191942   -2.105787    0.124297
N      -1.948195   -2.704450   -0.972502
C      -3.268047   -2.101692   -1.058652
C      -3.324303   -0.579845   -0.946802
O      -4.280869    0.078860   -1.229480
O      -2.195539    0.055480   -0.485337
H       0.901248    1.682951   -0.593494
H      -0.825502    1.940172   -0.228798
H       0.389222    1.878445    1.076182
H      -0.190866   -2.533167    0.187507
H      -1.712729   -2.339134    1.063386
H      -1.446798   -2.566396   -1.844693
H      -3.759253   -2.374947   -1.995218
H      -3.900872   -2.494273   -0.250187
