19

C      -0.235732    1.545283    0.025895
C       0.174694    0.078536   -0.044872
C       1.244728   -0.306668   -1.071967
O       1.845234   -1.510906   -0.574880
C       1.878690   -1.453540    0.851524
C       3.274448   -1.041329    1.337372
O       4.253056   -1.923283    0.835689
C       0.800691   -0.446832    1.250217
O       0.530666   -0.108870    2.373243
H       0.640959    2.193681    0.125639
H      -0.783951    1.850131   -0.869908
H      -0.872895    1.711331    0.898297
H      -0.710667   -0.551149   -0.217291
H       0.850610   -0.527238   -2.066269
H       1.993283    0.495346   -1.167855
H       1.648544   -2.453581    1.236269
H       3.478266    0.001171    1.040760
H       3.305153   -1.086295    2.429684
H       4.078850   -2.002530   -0.110513
