23

C       0.073179    1.467680   -0.088894
C       0.006517   -0.023350    0.164711
C      -0.972226   -0.768896   -0.719995
O       1.275997   -0.683922    0.327317
C       0.392619   -0.624201    1.456514
C       0.869282    0.122303    2.682918
C       1.837335   -0.701885    3.510991
C       3.285111   -0.790880    3.102657
C       2.896370   -0.027157    4.345376
H       0.835369    1.953276    0.521610
H       0.315533    1.656783   -1.140560
H      -0.893820    1.939249    0.118103
H      -0.721017   -0.623024   -1.776516
H      -0.948567   -1.840780   -0.509191
H      -1.993872   -0.404298   -0.566245
H      -0.068880   -1.588520    1.689810
H       1.352796    1.058069    2.386534
H      -0.004716    0.393076    3.291949
H       1.405710   -1.606882    3.932287
H       3.798994   -1.738389    3.220131
H       3.589516   -0.227384    2.227816
H       2.951163    1.056513    4.315543
H       3.141725   -0.454251    5.311592
