18

C      -0.247712    1.543633    0.185737
C       0.024102    0.046621    0.061958
C      -1.229351   -0.727566   -0.357799
N       1.239422   -0.256213   -0.780838
C       1.867394   -1.061560    0.308416
C       0.764266   -0.595716    1.227635
N       0.489473   -0.633828    2.459632
O       1.477550   -1.336199    3.177369
H       0.667962    2.078357    0.447810
H      -0.615862    1.942189   -0.765823
H      -0.999555    1.735936    0.957581
H      -1.573733   -0.383295   -1.340036
H      -1.033258   -1.802881   -0.417162
H      -2.040954   -0.571875    0.359302
H       1.017942   -0.804955   -1.605169
H       1.878287   -2.149272    0.156696
H       2.881428   -0.743142    0.573276
H       1.154064   -1.273528    4.082468
