17

C       0.047294    1.292969   -0.252980
N      -0.038862   -0.054753    0.282298
C      -1.221030   -0.760890    0.157589
N      -1.299179   -2.081240    0.126518
C      -2.642129   -2.352288    0.078113
O      -3.097281   -3.628631    0.033579
C      -3.403007   -1.217707    0.068159
N      -4.775743   -0.915881    0.008444
N      -2.443195   -0.182105    0.112917
H       1.072467    1.651707   -0.140841
H      -0.237952    1.369720   -1.313827
H      -0.592432    1.972428    0.322500
H       0.747437   -0.648811    0.061681
H      -2.313035   -4.189277    0.058159
H      -5.283393   -1.274711    0.810591
H      -5.216831   -1.296556   -0.822362
H      -2.672513    0.795392    0.155926
