11

O      -0.017740    1.285312    0.284663
C       0.089204   -0.071664   -0.007940
C      -1.283433   -0.757547   -0.224268
O      -0.881679   -1.163004   -1.570496
C       0.313740   -0.475702   -1.483956
O       1.123589   -0.310762   -2.331053
C      -1.616876   -1.892586    0.624623
N      -1.876465   -2.777331    1.320055
H       0.866880    1.664462    0.330640
H       0.745093   -0.621125    0.678688
H      -2.105493   -0.039513   -0.265021
