17

C      -0.270248    1.554756    0.058018
C      -0.021846    0.064141    0.018246
C      -0.731765   -0.868894    0.985218
C       0.747962   -0.619772    1.099800
O       1.684911   -1.622771    0.753463
C       1.553918   -2.341938   -0.384137
O       2.182650   -3.339091   -0.564352
O       0.654525   -1.894432   -1.292908
C       0.305442   -0.502628   -1.344226
H       0.575957    2.110968   -0.361157
H      -1.165949    1.821326   -0.514594
H      -0.420953    1.898964    1.085180
H      -1.372014   -0.429892    1.742542
H      -1.055967   -1.836447    0.618660
H       1.137013   -0.065259    1.945052
H      -0.546464   -0.451496   -2.028133
H       1.137744    0.057031   -1.792359
