20

C      -0.072829    1.627937   -0.079975
C       0.075656    0.117889    0.011503
N       1.158096   -0.469365   -0.802628
C       1.335585   -0.575044   -2.228657
C       1.763400   -1.134868    0.225936
O       2.678184   -1.921376    0.274728
C       0.767459   -0.539934    1.257774
C       1.362508    0.361205    2.326991
O      -0.075478   -1.531969    1.818011
H       0.880375    2.138692    0.082542
H      -0.448446    1.920460   -1.066234
H      -0.791147    1.986112    0.664105
H      -0.886285   -0.375971   -0.172482
H       1.487180    0.407212   -2.690107
H       2.221270   -1.189029   -2.408671
H       0.471230   -1.054241   -2.706338
H       1.983084    1.152658    1.897689
H       0.568753    0.816641    2.926828
H       1.997776   -0.233005    2.992098
H       0.496684   -2.213279    2.190778
