20

C       1.578116    1.783691   -0.363371
C       1.693897    0.264252   -0.449863
C       0.599004   -0.388999   -1.275922
O      -0.351500    0.225256   -1.710613
C       0.801554   -1.866521   -1.571413
C      -0.229056   -2.615752   -2.445241
C       0.906399   -2.819259   -3.447365
C       1.495600   -1.533219   -3.853602
N       1.934356   -2.122408   -2.563819
H       1.653407    2.238346   -1.354948
H       0.612541    2.077554    0.055409
H       2.371408    2.197231    0.265333
H       2.658108   -0.051898   -0.869625
H       1.658856   -0.192602    0.550078
H       1.053313   -2.397141   -0.648597
H      -0.581180   -3.538809   -1.982929
H      -1.082892   -2.030071   -2.791796
H       1.145161   -3.753149   -3.945233
H       2.289275   -1.553274   -4.593550
H       0.886400   -0.633048   -3.857881
