21

C       0.029322    1.355600    0.140040
O      -0.024027   -0.060454    0.101847
C      -1.306106   -0.579429    0.030527
C      -1.206558   -2.086924   -0.190766
C      -2.509741   -2.805201    0.156169
C      -2.851827   -3.079484    1.602920
C      -3.621562   -2.035460    0.841690
C      -3.374464   -0.570357    1.143294
O      -1.989642   -0.285008    1.244170
H       1.085835    1.631572    0.144682
H      -0.451126    1.795358   -0.747177
H      -0.456541    1.751787    1.037794
H      -1.873500   -0.101356   -0.795300
H      -0.938340   -2.267701   -1.236164
H      -0.376959   -2.456026    0.421480
H      -2.818355   -3.563511   -0.555805
H      -3.348102   -4.011274    1.850681
H      -2.144653   -2.726715    2.346965
H      -4.643291   -2.270070    0.557490
H      -3.831813    0.054724    0.356426
H      -3.816506   -0.278032    2.101755
