20

O      -0.235142    1.394435   -0.719316
C       0.007399    0.172210   -0.035958
C      -1.312840   -0.545729    0.083620
C      -1.825444   -1.417983   -1.032022
C      -1.436581   -2.041634    0.284975
C      -0.245086   -2.953181    0.385463
O      -0.663607   -4.268635   -0.000335
C       0.111293   -5.291598    0.401302
N      -0.128098   -6.465159    0.001639
H       0.583245    1.899840   -0.727959
H       0.736126   -0.445476   -0.583554
H       0.425703    0.359081    0.966733
H      -2.057269    0.048421    0.606205
H      -2.875443   -1.373183   -1.296018
H      -1.161545   -1.585500   -1.874541
H      -2.254658   -2.356357    0.926639
H       0.567844   -2.627313   -0.275074
H       0.144214   -2.979001    1.413255
H       0.917189   -4.990528    1.086795
H       0.535653   -7.114216    0.419058
