22

C      -0.364996    1.452761    0.076792
C       0.012751   -0.024194   -0.004845
C       0.709785   -0.360032   -1.331583
C       0.799418   -1.850948   -1.671427
C       1.625926   -2.714416   -0.739037
N       2.798614   -2.121199   -0.071721
C       1.672294   -2.596098    0.742354
C       0.905643   -1.593813    1.590370
O       0.854103   -0.274866    1.116093
H       0.528724    2.077023   -0.022856
H      -1.065976    1.722016   -0.718687
H      -0.827631    1.672593    1.042363
H      -0.902274   -0.636112    0.090896
H       0.164975    0.136886   -2.143653
H       1.713996    0.074363   -1.298252
H      -0.212019   -2.279239   -1.723555
H       1.217570   -1.951333   -2.681879
H       1.744978   -3.732583   -1.111988
H       3.573024   -2.777608   -0.043101
H       1.803846   -3.539199    1.276740
H      -0.111704   -1.991719    1.759314
H       1.393997   -1.531043    2.570541
