17

O      -1.102212    1.047464    0.621597
C      -0.214398    1.088216   -0.192845
C       1.086145    1.846682    0.005262
C       1.356224    2.816292   -1.182528
C       1.513341    2.139436   -2.463297
C       1.650873    1.560765   -3.507850
C       1.099719    2.592231    1.320240
C       1.803359    2.083080    2.500104
O       2.365245    3.133872    1.707606
H      -0.298165    0.563759   -1.168013
H       1.895604    1.103529   -0.001998
H       0.544825    3.552871   -1.244391
H       2.267505    3.375177   -0.942565
H       1.772605    1.064171   -4.438646
H       0.255213    3.261919    1.480465
H       1.468899    2.373495    3.494241
H       2.323988    1.127982    2.445211
