23

C      -0.003022    1.588582   -0.026650
C      -0.042953    0.059998   -0.089514
C       0.785055   -0.519581   -1.243779
O       2.152788   -0.115830   -1.165043
C       0.669809   -2.035677   -1.345838
C      -0.672447   -2.661585   -1.824978
C       0.161361   -3.700999   -2.622176
O      -0.288568   -4.165779   -3.868373
C       1.379268   -2.745409   -2.532152
H       1.029127    1.943333    0.034112
H      -0.452257    2.030483   -0.923043
H      -0.551372    1.965705    0.841751
H       0.332745   -0.364235    0.853671
H      -1.078808   -0.288393   -0.186544
H       0.432726   -0.079664   -2.187522
H       2.519847   -0.490803   -0.356301
H       0.977358   -2.485382   -0.392162
H      -1.384117   -3.025863   -1.080826
H      -1.196046   -1.981737   -2.509039
H       0.328313   -4.599998   -2.020784
H      -0.416256   -3.401840   -4.440748
H       1.422975   -2.083173   -3.405329
H       2.369530   -3.177304   -2.375157
