14

O       0.013693   -0.054534    0.016235
C       0.024578    1.151820    0.102514
C       1.258583    1.953113    0.054574
C       1.331689    3.295351    0.122860
C       2.753820    3.746203   -0.018254
O       3.149194    4.881079   -0.113812
C       3.582658    2.473236   -0.080638
N       3.426849    1.667667    1.165892
C       2.626433    1.344557   -0.042587
H      -0.912194    1.737438    0.213720
H       0.508358    3.987003    0.252750
H       4.521842    2.463543   -0.619392
H       4.218320    1.026075    1.220239
H       2.776211    0.404364   -0.556865
