17

N      -0.016528    1.120393   -0.058393
C      -0.656918    0.049101    0.137212
O      -0.147139   -1.096764   -0.389906
C      -0.753005   -2.351630   -0.248808
C      -1.267446   -2.888552    1.157342
N      -2.517501   -2.103229    0.884001
C      -2.303301   -2.577418   -0.524354
C      -2.328075   -4.103103   -0.400172
C      -1.633227   -4.311857    0.728107
H      -0.510591    1.890819    0.389285
H      -1.589039   -0.092635    0.685479
H      -0.091302   -3.031057   -0.782121
H      -0.735744   -2.712775    2.091831
H      -3.337772   -2.539275    1.308573
H      -2.843000   -2.079775   -1.329300
H      -2.731111   -4.807109   -1.113905
H      -1.311497   -5.233569    1.191146
