17

C       0.068918    1.323608   -0.506495
C      -0.058592    0.033920    0.285272
O       0.836982   -0.368595    1.002007
C      -1.323249   -0.716324    0.131402
C      -1.725622   -1.788646    1.129904
C      -1.402023   -2.223807   -0.251531
C      -2.531196   -1.865928   -1.263068
O      -3.613913   -1.237848   -0.563638
C      -2.464415   -0.454038   -0.906286
H       1.034546    1.785249   -0.298716
H      -0.018689    1.124888   -1.581247
H      -0.737173    2.018270   -0.242757
H      -0.949201   -1.977199    1.862534
H      -2.748782   -1.809210    1.480870
H      -0.543726   -2.834085   -0.498815
H      -2.753265   -2.366213   -2.197108
H      -2.623323    0.444711   -1.489510
