13

C       0.091081    1.508371    0.010586
C      -0.051435    0.033089    0.028705
C      -1.096753   -0.843227   -0.095881
N      -2.459665   -0.942000   -0.285505
N      -2.826587   -2.117877   -0.306731
O      -1.601188   -3.034848   -0.110154
C      -0.596895   -2.170891    0.009039
C       0.743755   -2.071857    0.195437
O       1.058018   -0.721067    0.204687
H       0.755806    1.832989   -0.797337
H      -0.887073    1.969423   -0.138459
H       0.510368    1.878027    0.952673
H       1.566201   -2.748990    0.328801
