18

C      -0.093983    1.343121    0.338685
C       0.029731   -0.117099    0.074098
N      -0.384215   -0.742089   -0.948561
C      -0.041492   -2.153358   -0.747681
C       0.631184   -2.207801    0.657465
O       0.671496   -0.823516    1.056311
C      -0.142169   -3.025818    1.666935
C      -0.441371   -2.550647    3.021175
O      -1.444390   -2.553152    1.997374
H       0.894654    1.787763    0.489731
H      -0.589915    1.825935   -0.502450
H      -0.672309    1.512797    1.252313
H      -0.947234   -2.767599   -0.788631
H       0.627561   -2.495480   -1.544100
H       1.662324   -2.576369    0.615992
H      -0.079322   -4.102728    1.494703
H      -0.592194   -3.272353    3.822429
H      -0.094825   -1.565879    3.322005
