13

C       0.025662    1.388597    0.071889
N       0.181445   -0.055223    0.046413
C       0.639218   -0.601027   -0.979332
O       1.044535   -0.041996   -2.157668
C       1.458211   -1.089031   -2.994247
C       1.311481   -2.224402   -2.318890
O       1.559532   -3.498261   -2.625248
O       0.809713   -1.970281   -1.066034
H       0.766699    1.827328    0.750908
H       0.131269    1.869319   -0.908126
H      -0.962036    1.632997    0.475983
H       1.809856   -0.843092   -3.977160
H       1.272683   -4.048945   -1.886681
