17

O       0.110515    0.328130    0.999945
C      -0.015939    1.326887    0.312844
C      -1.362877    1.743146   -0.133093
C      -1.733461    2.602794   -1.090192
C      -0.900951    3.432070   -2.024244
C       0.467402    2.869935   -2.430894
C       1.472805    2.795857   -1.300412
O       1.186163    3.531704   -0.117264
C       1.231225    2.100086   -0.019391
H      -2.136178    1.207873    0.411506
H      -2.806816    2.728845   -1.225672
H      -1.484206    3.603163   -2.935933
H      -0.758110    4.421508   -1.570130
H       0.354939    1.875921   -2.881298
H       0.879810    3.518278   -3.212364
H       2.517998    2.844401   -1.610927
H       2.089966    1.707732    0.522958
