18

C       0.382586    1.626539    0.137448
C       0.078412    0.145844    0.068353
C       1.190703   -0.848275   -0.272643
C       0.689512   -0.812119    1.114315
O       1.549113   -0.282456    2.079805
C       1.011073   -0.056340    3.303615
N       1.712248    0.483362    4.199743
C      -1.287007   -0.254166   -0.358730
O      -1.639368   -1.398759   -0.533332
H       1.333144    1.806327    0.643288
H       0.441666    2.064841   -0.864275
H      -0.394820    2.163886    0.692322
H       0.908642   -1.696654   -0.885542
H       2.171607   -0.423241   -0.452593
H       0.046149   -1.619028    1.456065
H      -0.029591   -0.394902    3.390023
H       1.175926    0.565119    5.060972
H      -2.000258    0.589937   -0.492176
