27

C      -0.091486    1.582451   -0.040686
C      -0.096675    0.044619   -0.048862
C      -1.545693   -0.458825   -0.134135
C       0.806789   -0.533470   -1.171372
C       2.254379   -0.016671   -1.065940
C       0.793911   -2.067574   -1.245995
C       1.195948   -2.816984    0.013625
C      -0.227579   -2.733837   -2.139932
C       1.219781   -2.679183   -2.562296
H       0.897848    1.997101    0.167557
H      -0.426389    1.980718   -1.006665
H      -0.774383    1.963907    0.725684
H       0.318320   -0.288251    0.913488
H      -2.008969   -0.160512   -1.082559
H      -1.613461   -1.546384   -0.061200
H      -2.148077   -0.029200    0.673396
H       0.398625   -0.172349   -2.127762
H       2.895545   -0.517680   -1.797220
H       2.317554    1.058047   -1.253149
H       2.676014   -0.201667   -0.071418
H       0.497066   -2.636641    0.837690
H       1.212719   -3.896116   -0.168947
H       2.195490   -2.527690    0.356363
H      -0.636483   -3.690185   -1.829159
H      -0.933660   -2.106441   -2.673071
H       1.484358   -2.011780   -3.376658
H       1.797932   -3.597197   -2.540866
