12

C      -0.033999    1.496186    0.009348
C       0.035697   -0.010609    0.002912
O       1.070641   -0.639236   -0.009264
C      -1.254998   -0.757975    0.009764
N      -2.434099   -0.188263    0.021774
O      -3.337229   -1.198826    0.024587
N      -2.718150   -2.428122    0.013945
C      -1.442871   -2.170953    0.004766
H       0.976489    1.904704    0.001804
H      -0.593943    1.852104   -0.861599
H      -0.577950    1.845139    0.893159
H      -0.701730   -2.953602   -0.004768
