13

C      -0.041899    1.525607    0.028440
C       1.537441    1.417468   -0.031645
C       1.331725   -0.020833    0.432717
C       1.598292   -1.319526    0.825498
C       0.294055   -1.836831    1.065789
N      -0.696286   -0.952538    0.846506
N      -0.000170    0.124114    0.466290
H      -0.442000    2.214310    0.776816
H      -0.543850    1.678059   -0.930329
H       1.960258    1.540875   -1.031111
H       2.061499    2.074464    0.665936
H       2.538930   -1.832910    0.930964
H       0.039930   -2.834421    1.394674
