16

N      -0.170569    1.363880    0.236256
C       0.035827    0.034730    0.040923
O       1.143918   -0.464792   -0.037302
C      -1.235418   -0.804978   -0.111666
C      -1.725022   -0.904887   -1.587407
C      -1.039436   -2.302147   -1.593302
N      -0.967839   -2.254605   -0.110255
C      -1.800637   -3.422728   -2.145364
N      -2.407083   -4.294031   -2.602056
H       0.628544    1.965874    0.351494
H      -1.088400    1.748502    0.377602
H      -1.988646   -0.490384    0.620359
H      -2.809735   -0.964706   -1.671970
H      -1.335376   -0.173678   -2.295263
H      -0.058851   -2.268346   -2.081668
H      -0.035450   -2.463089    0.238851
