21

C       0.034200    1.574907    0.021542
C       0.001341    0.046543   -0.014178
C       0.712662   -0.517069   -1.244228
N       0.692405   -1.965037   -1.178618
C       0.877151   -2.702232   -0.025427
O       1.093826   -3.904163   -0.074316
N       0.747990   -2.005872    1.161184
C       1.025682   -2.702723    2.401550
C       0.645808   -0.557171    1.235120
H       1.063894    1.949365    0.047616
H      -0.453601    1.999239   -0.861602
H      -0.483297    1.960341    0.905644
H      -1.040921   -0.293848   -0.053124
H       0.202512   -0.197477   -2.159634
H       1.739619   -0.115382   -1.290323
H       0.924534   -2.494337   -2.003611
H       1.086289   -3.768182    2.186513
H       1.975574   -2.372158    2.846673
H       0.226845   -2.518271    3.130386
H       1.640457   -0.103686    1.393678
H       0.046970   -0.301734    2.118766
