23

C       0.010751    1.615254   -0.078571
C       0.015381    0.100337    0.030510
C       1.114138   -0.662505   -0.681409
C       1.105955   -0.597806    0.826855
C       2.187648    0.124790    1.585623
O       3.284015   -0.771969    1.733694
C      -1.332994   -0.577534    0.074085
C      -2.550364    0.033605    0.724402
C      -2.506290   -0.149842   -0.774215
H       1.020703    2.010322   -0.206946
H      -0.570733    1.945463   -0.946012
H      -0.418413    2.089270    0.811080
H       0.866910   -1.603640   -1.161169
H       1.873875   -0.086892   -1.201482
H       0.791503   -1.506362    1.334681
H       2.497843    1.034672    1.050890
H       1.806287    0.440219    2.570758
H       3.945619   -0.342220    2.284085
H      -1.246414   -1.653747    0.203153
H      -3.197992   -0.610417    1.309273
H      -2.478466    1.046293    1.104942
H      -2.409672    0.739494   -1.386810
H      -3.119891   -0.924618   -1.220885
