17

C      -0.011343    1.549714    0.011530
O       1.329037    2.069091    0.025895
C       2.290415    1.055978   -0.047106
O       2.207618    0.174202    1.066057
C       0.912180   -0.438396    1.158590
C       0.033703    0.017150   -0.026752
C       0.777474   -0.420248   -1.286572
O       1.102271    0.603047   -2.233586
C       2.106929    0.193074   -1.306249
H      -0.517644    1.886209    0.925150
H      -0.536444    1.955821   -0.857558
H       3.267694    1.535631    0.018301
H       1.037837   -1.528757    1.167570
H       0.452902   -0.140351    2.109789
H      -0.972491   -0.402759    0.049582
H       0.586926   -1.405016   -1.705820
H       2.979866   -0.297707   -1.728086
