19

O       0.044379   -0.043398   -0.093246
C      -0.003376    1.170696    0.009313
N      -1.193175    1.864684    0.069297
C      -1.318004    3.308966   -0.032964
C      -0.109235    3.967039    0.636993
C       1.158553    3.379963    0.054613
C       1.815841    4.047108   -1.137853
C       2.478407    4.067475    0.227005
N       1.131486    1.944982    0.137933
H      -1.992683    1.286629   -0.132417
H      -1.380640    3.640410   -1.081422
H      -2.244202    3.619251    0.462128
H      -0.136529    5.048382    0.479333
H      -0.140193    3.776821    1.715866
H       2.246733    3.403409   -1.896717
H       1.392687    4.971346   -1.518447
H       2.503232    5.000928    0.779312
H       3.356870    3.446536    0.373262
H       1.986661    1.421667    0.040390
