14

C      -0.027005    1.544702    0.000693
C       0.002397    0.005631   -0.017581
N       0.793169   -0.501367   -1.161643
C       1.754069   -1.170284   -0.652531
N       1.790729   -1.244063    0.733431
C       0.723821   -0.530657    1.261213
O       0.458582   -0.351297    2.417511
C      -1.357478   -0.541495   -0.080996
N      -2.430277   -0.967329   -0.122681
H       0.996618    1.927020    0.013033
H      -0.532657    1.914776   -0.892436
H      -0.550906    1.890035    0.894515
H       2.524350   -1.662203   -1.237011
H       2.480674   -1.718190    1.294287
