19

O       0.334618    0.900644   -0.912514
C       0.062060   -0.322670   -0.248866
C      -1.341295   -0.233769    0.326867
C      -2.469546   -0.229695   -0.746558
C      -2.695278   -1.730685   -0.462607
C      -1.893709   -1.592883    0.851416
O      -4.054891   -2.130346   -0.311054
C      -4.505534   -3.182908   -1.017633
O      -5.628442   -3.581949   -0.943170
H       1.221093    0.856258   -1.282565
H       0.133785   -1.176792   -0.944318
H       0.780357   -0.508643    0.566226
H      -1.376388    0.595176    1.036768
H      -3.338188    0.351158   -0.428678
H      -2.192243    0.062628   -1.761030
H      -2.204606   -2.382903   -1.193742
H      -1.174875   -2.382269    1.088501
H      -2.570672   -1.461591    1.698270
H      -3.725336   -3.628656   -1.666480
