19

C       0.034256    1.338032   -0.176685
O       0.006281   -0.035759    0.146138
C      -1.292416   -0.594673    0.148707
C      -1.868857   -0.849222   -1.270501
O      -2.605120   -2.069511   -1.214751
C      -2.111970   -2.822019   -0.136101
C      -0.620403   -3.073888   -0.039874
C      -1.286741   -1.976097    0.772945
O      -1.393029   -2.077575    2.155874
H       1.070252    1.671961   -0.081357
H      -0.302259    1.532599   -1.205939
H      -0.594477    1.927784    0.508425
H      -1.968671    0.039240    0.743421
H      -2.549699   -0.068456   -1.618850
H      -1.030962   -0.922981   -1.979196
H      -2.817133   -3.562749    0.220165
H      -0.330579   -3.955483    0.521478
H       0.034922   -2.811587   -0.862642
H      -0.533178   -1.849333    2.527640
