17

C      -0.058024    1.441482   -0.083031
C      -0.015916   -0.068295   -0.084247
C       0.782770   -0.771897   -1.113158
N       1.302140   -0.627285    0.294721
C       1.252644   -2.139660    0.412903
C      -0.060583   -2.838325    0.108390
C       0.802580   -2.316050   -1.006542
O       1.355725   -3.106356   -1.993868
H       0.878023    1.855295   -0.467428
H      -0.882718    1.805187   -0.705087
H      -0.202147    1.820488    0.933678
H      -0.912545   -0.536746    0.308411
H       1.280694   -0.260773   -1.932637
H       2.039147   -2.613827    0.985260
H       0.036356   -3.914001    0.227378
H      -1.044312   -2.458893    0.362968
H       0.649445   -3.391010   -2.585026
