15

C      -0.030965    1.384828    0.063893
N       0.000714   -0.063720    0.044065
C       0.566014   -0.614551   -0.952836
N       1.190510   -0.060861   -2.083967
C       1.672278   -1.044153   -2.920053
C       1.373820   -2.242113   -2.354445
N       0.699885   -1.979494   -1.157011
C       1.653482   -3.540839   -2.820820
N       1.875620   -4.617324   -3.190005
H       0.975436    1.838827    0.070585
H      -0.579446    1.816537   -0.791530
H      -0.538594    1.723302    0.970553
H       1.261654    0.927978   -2.240223
H       2.184901   -0.831643   -3.842027
H       0.348713   -2.660045   -0.507324
