14

N       0.103596    1.402923    0.160122
C      -0.006071    0.036221    0.042048
C      -1.109771   -0.788355    0.019120
N      -0.615786   -2.106695   -0.005879
C       0.752201   -2.141826   -0.011882
O       1.521204   -3.075431   -0.025478
N       1.104014   -0.765884    0.004441
C      -2.505979   -0.494848   -0.008345
O      -3.383288   -1.344034   -0.036193
H       0.835882    1.824381   -0.396181
H      -0.769719    1.899859    0.060415
H      -1.209817   -2.917815   -0.018882
H       2.060132   -0.469995    0.109086
H      -2.755285    0.590730   -0.005473
