19

C       0.275061    1.233637    0.235285
O       0.237149   -0.177085    0.079070
C       0.597508   -0.615134   -1.220764
O       1.938685   -0.288554   -1.509500
C       2.739474   -1.451912   -1.756501
C       1.828969   -2.662650   -1.653124
C       1.250125   -2.911392   -0.282939
O       1.822235   -2.313400    0.835606
C       0.458573   -2.121528   -1.296026
H       1.290998    1.621713    0.106283
H      -0.388591    1.723376   -0.492016
H      -0.078588    1.453029    1.244682
H      -0.049232   -0.091982   -1.943417
H       3.178664   -1.370464   -2.757400
H       3.545685   -1.482406   -1.015005
H       1.962175   -3.480632   -2.351113
H       0.890402   -3.920596   -0.091068
H       1.336664   -1.490475    0.994368
H      -0.461689   -2.525417   -1.699362
