16

O      -0.935477    1.272237   -0.189015
C       0.187011    0.883586    0.042984
C       1.384860    1.769222    0.018494
C       1.260380    3.075577   -0.277925
C       2.411827    4.022961   -0.285801
N       3.543099    3.477968    0.446992
C       3.902887    2.124887    0.039266
C       2.725519    1.175987    0.249256
O       2.885771    0.002248    0.512083
H       0.401053   -0.171872    0.291233
H       0.273571    3.457928   -0.529485
H       2.630389    4.263267   -1.349677
H       2.106179    4.970789    0.174653
H       4.342626    4.096023    0.379783
H       4.197000    2.036891   -1.026997
H       4.741617    1.764785    0.639217
