16

C       0.051585    1.443346    0.085490
N      -0.179309    0.027893   -0.128005
C       0.519055   -0.647014   -1.104192
C       0.668274   -2.036617   -1.187979
N       1.392136   -2.306200   -2.346106
C       1.696576   -1.142557   -2.968155
C       1.179562   -0.092581   -2.234040
C       0.214946   -3.029590   -0.309941
N      -0.168675   -3.830814    0.440538
H       1.100913    1.687211    0.312853
H      -0.244920    2.013653   -0.801334
H      -0.571381    1.780967    0.916430
H      -0.348287   -0.508590    0.709493
H       1.645986   -3.228264   -2.653500
H       2.260402   -1.134586   -3.887328
H       1.264931    0.952234   -2.483553
