20

C      -0.023256    1.559859   -0.125738
C       1.462174    1.988351   -0.011464
C       2.166662    0.862632    0.783760
C       1.952538    0.980959    2.312185
C       0.550003    0.382172    2.590601
C       0.289842   -0.552742    1.410636
C       0.000658    0.041340    0.040386
C       1.396565   -0.417348    0.391346
H      -0.644387    2.045543    0.636177
H      -0.447940    1.838566   -1.094609
H       1.898181    2.039379   -1.015502
H       1.592053    2.974551    0.446807
H       3.230323    0.812016    0.537350
H       2.708476    0.374840    2.824022
H       2.062468    2.008059    2.676127
H       0.529235   -0.168839    3.535430
H      -0.215078    1.163492    2.670594
H      -0.147487   -1.525241    1.611454
H      -0.618229   -0.558177   -0.619082
H       1.885889   -1.261993   -0.078126
