15

O      -0.247824    0.029168    0.064012
C      -0.029222    1.191890    0.296844
C       1.272097    1.874403    0.025954
C       1.644467    3.143125    0.815643
O       1.904853    3.907873   -0.384612
C       1.461104    2.832469   -1.228050
C       2.658857    1.937454   -1.649451
O       3.429129    1.981850   -2.558766
C       2.464993    1.005429   -0.440447
H      -0.821061    1.852958    0.716216
H       0.809735    3.578623    1.380011
H       2.523512    3.066840    1.464317
H       0.696725    3.124437   -1.953258
H       3.312742    0.902433    0.241577
H       2.130540    0.008573   -0.747665
