11

N      -0.015309   -1.148164   -0.003059
C       0.012506    0.007993    0.002887
C      -0.006949    1.445593    0.010535
C      -1.229972    2.127531    0.030712
N      -1.286800    3.457567    0.038360
C      -0.118216    4.099286    0.025763
C       1.100786    3.417950    0.005646
N       1.167507    2.090194   -0.002130
H      -2.168731    1.581587    0.040685
H      -0.149503    5.185337    0.031797
H       2.043364    3.958108   -0.004400
