17

C       0.522408    1.543116   -0.274670
C       0.047699    0.124068    0.049133
N       0.279799   -0.817490   -1.035843
C       1.390422   -1.613453   -0.911494
O       1.830063   -2.364386   -1.749730
C       1.963004   -1.352328    0.486516
C       0.831702   -0.586175    1.207465
C       1.282865    0.312491    2.262331
N       1.643031    1.021812    3.100796
H       1.594783    1.564324   -0.492023
H      -0.007806    1.922850   -1.153415
H       0.326140    2.220032    0.561048
H      -1.017683    0.150856    0.301458
H      -0.168273   -0.724331   -1.934684
H       2.238488   -2.284822    0.979464
H       2.869390   -0.747659    0.386308
H       0.154223   -1.316666    1.661995
