20

C       0.607803    1.142477    0.223652
O       0.626876   -0.258696    0.024134
C       0.433844   -0.631887   -1.309205
O       1.463012   -0.164002   -2.164710
C       2.737779   -0.817336   -2.106712
C       2.797051   -2.036582   -1.172117
C       1.573406   -2.905893   -1.387049
N       0.634531   -2.983433   -0.253990
C       0.297821   -2.147747   -1.415505
H       1.404132    1.644787   -0.337877
H      -0.357627    1.575650   -0.080552
H       0.751609    1.312210    1.292801
H      -0.462822   -0.135340   -1.709560
H       2.979717   -1.121623   -3.133624
H       3.485979   -0.075945   -1.799843
H       3.727116   -2.581278   -1.361386
H       2.801828   -1.707210   -0.130818
H       1.672672   -3.770763   -2.037870
H       0.100306   -3.847348   -0.306223
H      -0.494612   -2.478614   -2.080176
