16

O      -0.116359    1.012433   -1.595891
C      -0.000164    1.337932   -0.441690
C      -1.177884    1.274290    0.521911
C      -1.610058    2.665549    1.003425
N      -0.782422    3.177752    2.080857
C       0.572177    3.195223    2.102762
C       1.498732    2.632709    1.279725
C       1.382498    1.814059    0.083903
O       2.364555    1.446924   -0.537549
H      -2.002702    0.808902   -0.022174
H      -0.931800    0.650298    1.389286
H      -1.618598    3.363497    0.151174
H      -2.632983    2.610664    1.384887
H      -1.241883    3.781038    2.741430
H       0.955675    3.754322    2.952922
H       2.532543    2.821736    1.548161
