20

C       0.314581    1.481618    0.380896
C       0.088717    0.015713    0.002266
C      -1.380820   -0.377818   -0.024506
C      -1.659997   -1.853076   -0.408757
C      -2.788010   -2.286593    0.578308
C      -3.140045   -0.950923    1.295577
O      -1.937111   -0.221967    1.282489
C      -3.936121   -2.917753   -0.058940
N      -4.856237   -3.404439   -0.562097
H       1.381695    1.721133    0.401286
H      -0.164984    2.153704   -0.339251
H      -0.103995    1.694308    1.367840
H       0.513163   -0.189399   -0.988352
H       0.605496   -0.643150    0.711230
H      -1.926834    0.283086   -0.719281
H      -1.970027   -1.949811   -1.450500
H      -0.772334   -2.473150   -0.262718
H      -2.382637   -2.986274    1.314472
H      -3.937689   -0.428369    0.745180
H      -3.456639   -1.090058    2.330967
