21

C       0.138624    1.391834    0.007547
C      -0.040244   -0.128914    0.001228
C      -1.506995   -0.525889    0.013073
O      -1.576546   -1.965158    0.006100
C      -2.817416   -2.492874    0.015000
O      -3.832880   -1.853719    0.027981
C      -2.708508   -4.010028    0.005899
O      -3.987626   -4.567333    0.015159
C      -3.964954   -5.975563    0.006810
H       1.198671    1.660044   -0.001064
H      -0.328435    1.852500   -0.869640
H      -0.311713    1.843187    0.898217
H       0.437956   -0.562831   -0.884462
H       0.454666   -0.572098    0.873042
H      -2.023809   -0.148500    0.902215
H      -2.040589   -0.139137   -0.862022
H      -2.129905   -4.310068   -0.884706
H      -2.113004   -4.319464    0.882031
H      -3.466709   -6.371909   -0.892268
H      -3.449581   -6.382230    0.891511
H      -5.003120   -6.314334    0.014826
