18

C       0.156324    1.431604    0.006867
C      -0.018175   -0.089943    0.000324
C      -1.484453   -0.486315    0.013411
O      -1.552653   -1.931573    0.006194
C      -2.784820   -2.458740    0.016542
O      -3.809511   -1.834999    0.030792
C      -2.668697   -3.984956    0.007607
C      -3.960469   -4.659479    0.014484
N      -4.966027   -5.225832    0.019555
H       1.215851    1.700746   -0.002653
H      -0.312146    1.891081   -0.869995
H      -0.293787    1.881371    0.898261
H       0.459299   -0.522477   -0.886243
H       0.477606   -0.532141    0.871950
H      -2.001890   -0.115119    0.903997
H      -2.020249   -0.105450   -0.862111
H      -2.093489   -4.288066   -0.873912
H      -2.079714   -4.296949    0.876886
