19

C      -0.395682    1.514221    0.017636
N       0.132541    0.167038    0.075550
C       1.023100   -0.469160   -0.898888
C       2.547482   -0.035779   -0.810111
C       2.817638    1.069057    0.224619
C       2.419664    0.002913    1.258657
C       0.894945   -0.430326    1.175227
C       1.373910   -1.528323    0.183991
N       2.819569   -1.098885    0.265280
H       0.332809    2.336316    0.046862
H      -0.977342    1.619825   -0.905409
H      -1.085699    1.653127    0.857912
H       0.604165   -0.653405   -1.891066
H       3.126289   -0.085945   -1.735120
H       3.892325    1.263223    0.287378
H       2.285239    2.016868    0.174025
H       2.880105   -0.011438    2.249093
H       0.356649   -0.578410    2.114470
H       1.083662   -2.577914    0.185707
