19

C      -0.398245    1.433522   -0.101919
C      -0.044286   -0.032604    0.037044
C       1.319073   -0.626783   -0.300785
C       2.516777    0.293934   -0.414155
C       2.615789    1.013051    0.941912
O       3.294322    1.978557    1.173513
C       1.699896    0.301637    1.950468
C       0.818500   -0.621864    1.128958
O       0.449608   -1.844236    1.698948
H       0.419597    2.102403    0.179311
H      -0.667520    1.669769   -1.137189
H      -1.257256    1.690042    0.528030
H      -0.854240   -0.705173   -0.235520
H       1.324697   -1.562834   -0.846365
H       3.440343   -0.280071   -0.561757
H       2.471194    1.030724   -1.222289
H       2.324640   -0.305992    2.617403
H       1.177692    1.036660    2.570814
H      -0.288764   -1.685487    2.297113
