21

C      -0.414259    1.522392    0.053615
C      -0.027551    0.069745   -0.017077
C      -0.105958   -0.631864   -1.148148
C       0.256915   -2.082812   -1.293121
C       0.971373   -2.652859   -0.091705
O       2.186540   -1.998861    0.295800
C       1.055837   -1.918602    1.180650
C       1.222684   -2.663970    2.485314
C       0.437706   -0.537037    1.285213
H       0.436109    2.142108    0.366970
H      -0.768361    1.893685   -0.911612
H      -1.207897    1.688774    0.794084
H      -0.460455   -0.137842   -2.050360
H      -0.647327   -2.682629   -1.477851
H       0.886414   -2.226588   -2.183010
H       1.028670   -3.742495   -0.057740
H       1.734647   -3.615164    2.319846
H       1.818208   -2.074973    3.192119
H       0.251752   -2.864205    2.951209
H       1.166757    0.133617    1.764629
H      -0.410670   -0.582882    1.984800
