21

C      -0.037667    1.525693    0.032041
C      -0.029962    0.016593    0.076011
C      -1.229859   -0.704136   -0.541902
C      -1.489643   -2.067752    0.122283
C      -0.181038   -2.904198    0.203503
C       0.136944   -2.099101    1.492113
C      -1.404310   -1.941270    1.673690
C       0.694181   -0.729467    1.119447
O       1.257033   -0.578393   -0.190935
H       0.880613    1.926347    0.468909
H      -0.105084    1.881189   -1.002748
H      -0.894630    1.931575    0.580232
H      -2.116324   -0.069041   -0.421506
H      -1.068850   -0.821166   -1.621174
H      -2.377103   -2.542645   -0.303221
H      -0.390591   -3.950809    0.438514
H       0.529754   -2.835805   -0.619814
H       0.718155   -2.579950    2.281739
H      -1.775524   -1.024123    2.142687
H      -1.845216   -2.807881    2.173034
H       1.222250   -0.182221    1.900590
