22

C       0.298831    1.309794    0.570231
C      -0.312066    0.454486   -0.543191
C       0.686010    0.014126   -1.615717
C       1.776761   -0.920990   -1.092972
O      -0.102550   -0.641683   -2.625664
C       0.461094   -0.714372   -3.912439
C      -0.426526   -1.625465   -4.760964
C       0.574079    0.632956   -4.525958
N       0.665379    1.685325   -4.994988
H       1.032201    0.753661    1.162144
H       0.799600    2.195281    0.163062
H      -0.478842    1.657352    1.256400
H      -0.784101   -0.440804   -0.119794
H      -1.105514    1.015001   -1.048599
H       1.147906    0.911305   -2.055357
H       2.449045   -1.247843   -1.892160
H       2.392071   -0.417355   -0.342294
H       1.328605   -1.809788   -0.637243
H       1.479422   -1.130896   -3.879913
H      -0.034439   -1.708256   -5.777401
H      -0.455775   -2.616739   -4.303360
H      -1.441891   -1.225222   -4.801974
