15

N      -0.050373    1.242481    0.329656
C       0.023899    0.012717    0.030800
N       1.151973   -0.766040   -0.242640
C       0.907140   -2.087142   -0.604707
O       1.742696   -2.893257   -0.920833
C      -0.611209   -2.279529   -0.489371
O      -0.968248   -2.862027    0.782682
C      -1.578973   -1.626317    1.224983
C      -1.174198   -0.904735   -0.083676
H       0.868612    1.686148    0.375066
H       2.095241   -0.405466   -0.214220
H      -1.021133   -2.832098   -1.338437
H      -2.659399   -1.740883    1.362682
H      -1.130329   -1.241853    2.146485
H      -1.978731   -0.452391   -0.658889
