18

C      -0.176888   -1.207380    0.117904
C      -0.087752   -0.007959    0.110992
C       0.020212    1.422888    0.055648
N       0.685057    2.111812    1.192110
C       1.335740    2.125341   -0.117641
C       2.656469    1.359195   -0.268185
C       3.419568    2.184871   -1.271484
C       2.761252    3.280932   -1.644982
C       1.424280    3.410946   -0.959179
H      -0.258068   -2.265823    0.140321
H      -0.839909    1.921844   -0.387844
H       0.212423    2.997865    1.361556
H       3.173679    1.289221    0.696762
H       2.491910    0.328866   -0.606300
H       4.402164    1.897321   -1.628758
H       3.122007    4.021385   -2.349878
H       0.593696    3.502429   -1.670881
H       1.384466    4.306281   -0.320870
