21

C      -0.023826    1.522677   -0.068864
C      -0.014864    0.028061    0.012930
C       0.454222   -1.042740   -0.976546
C       1.223273   -1.775382    0.118232
C       0.478116   -0.890541    1.172794
C      -0.781491   -1.597975    1.699538
C      -1.626219   -1.856546    0.422675
C      -1.020261   -0.899287   -0.605734
O      -1.847824   -0.351237   -1.588578
H       0.986896    1.941753   -0.006004
H      -0.470087    1.843609   -1.014634
H      -0.616049    1.962231    0.743192
H       0.757076   -0.908889   -2.010471
H       1.100937   -2.862240    0.205689
H       2.291682   -1.545758    0.078891
H       1.103675   -0.443553    1.946361
H      -0.545109   -2.515014    2.248794
H      -1.322736   -0.934859    2.383721
H      -1.573863   -2.902199    0.097574
H      -2.682819   -1.614251    0.568144
H      -1.951515   -1.001741   -2.291091
