20

C       0.361199    0.859534    0.764993
C      -0.056053    0.115861   -0.488309
O       0.612822    0.109373   -1.497462
C      -1.367763   -0.646256   -0.387697
C      -1.850995   -1.475474   -1.596403
C      -1.997478   -2.664301   -0.615119
C      -0.860674   -3.700837   -0.593706
C      -0.113014   -2.727919    0.354898
N      -1.344939   -1.866916    0.510481
H       1.396652    1.191686    0.681332
H      -0.287603    1.733667    0.899232
H       0.226879    0.228648    1.649659
H      -2.134026    0.036992    0.000178
H      -2.765659   -1.128513   -2.080701
H      -1.074235   -1.608617   -2.353297
H      -3.017429   -3.016284   -0.438423
H      -1.141194   -4.642403   -0.116497
H      -0.385261   -3.918698   -1.552983
H       0.207470   -3.146496    1.312585
H       0.742595   -2.222554   -0.104039
