18

C      -0.033539    1.587640    0.215954
C      -0.041086    0.061029    0.018257
C       0.864767   -0.644066    1.043838
C      -1.447780   -0.493912    0.047535
C      -2.283799   -0.415377    1.173084
N      -3.509728   -0.912388    1.162086
C      -3.866424   -1.482822    0.003803
N      -3.123042   -1.587373   -1.092665
N      -1.890740   -1.082108   -1.066020
H       0.986281    1.974687    0.127869
H      -0.652956    2.088767   -0.533545
H      -0.408112    1.867664    1.206866
H       0.334578   -0.160241   -0.986021
H       0.529325   -0.461466    2.070844
H       0.882682   -1.725664    0.881408
H       1.890234   -0.271007    0.961144
H      -1.948347    0.058239    2.093319
H      -4.864776   -1.905889   -0.057939
