19

C      -0.053187    1.526938   -0.023715
C      -0.005613    0.010872    0.024848
O      -1.341493   -0.472981   -0.048712
C      -1.482658   -1.820558   -0.014498
C      -2.697114   -2.479824   -0.077775
N      -2.409577   -3.808367   -0.025447
C      -3.348014   -4.908666    0.001241
N      -1.095093   -4.050694    0.073979
C      -0.516039   -2.846403    0.078761
H       0.959221    1.937738    0.030508
H      -0.517353    1.867819   -0.953332
H      -0.633621    1.920853    0.815190
H       0.581439   -0.390899   -0.814127
H       0.464747   -0.337913    0.955987
H      -3.704200   -2.105754   -0.157084
H      -4.108502   -4.777197   -0.773519
H      -2.786524   -5.822567   -0.190957
H      -3.842786   -4.988489    0.975556
H       0.557792   -2.768429    0.140699
