17

C      -0.009502    1.639851    0.080242
C       1.471873    1.193324   -0.002165
N       1.146803    0.208216    1.107456
C       0.015575    0.090785    0.100529
C       1.050228    0.132969   -1.069933
C       0.658986    0.514797   -2.518768
O       1.342555   -0.464478   -3.338603
C       2.003177   -1.255545   -2.463426
N       1.919762   -1.029475   -1.219288
H      -0.292133    2.101245    1.025868
H      -0.448880    2.139608   -0.785074
H       2.374215    1.807798    0.012074
H       1.756280   -0.607082    0.997260
H      -0.813916   -0.605887    0.236893
H      -0.413480    0.434998   -2.718257
H       1.004414    1.508447   -2.818244
H       2.574811   -2.053507   -2.924095
