18

O       0.041009    0.024045    0.120267
C       0.000136    1.208954   -0.021040
C      -1.118252    2.265405    0.045427
C      -0.041813    3.150186    0.762587
C       1.054405    2.337183   -0.005653
C       1.163467    2.908833   -1.414742
N       0.714132    2.022492   -2.502500
C      -0.130130    3.165805   -2.106708
C      -1.416912    2.830959   -1.361970
H      -2.032550    2.000060    0.579218
H      -0.079232    4.222543    0.557618
H      -0.013929    2.974304    1.839582
H       2.019598    2.136514    0.461415
H       2.000067    3.577327   -1.602046
H       1.208467    2.228837   -3.366229
H      -0.181464    4.006108   -2.794264
H      -2.013234    2.115854   -1.939448
H      -2.015652    3.742628   -1.250125
