12

O      -0.726206    1.316339    0.348475
C       0.339445    0.976176   -0.084978
C       1.443938    1.970550   -0.459094
O       2.392454    1.585065   -1.092963
C       1.251456    3.444990   -0.111226
C       2.202996    4.405659   -0.710616
O       0.904262    4.228458   -1.263863
C       0.587530    3.792648    1.127240
N       0.118733    4.084076    2.142230
H       0.618664   -0.073525   -0.305011
H       2.367078    5.349819   -0.197050
H       3.023670    4.002326   -1.297117
