19

C      -0.010751    1.544391   -0.032762
O       1.357380    1.964677   -0.012169
C       2.213556    0.813446   -0.106240
C       1.325847   -0.269064   -0.730381
C       0.033288    0.010809    0.054807
C       0.225377   -0.390748    1.511949
O       1.092426   -1.492067    1.783552
C       1.545728   -0.171827    2.128771
C       2.682600    0.406514    1.300611
H      -0.541536    2.007354    0.808433
H      -0.490274    1.878552   -0.963664
H       3.069158    1.094147   -0.727364
H       1.177249   -0.085419   -1.798222
H       1.702163   -1.280603   -0.581589
H      -0.854241   -0.462911   -0.372475
H      -0.665523   -0.352355    2.139706
H       1.597843   -0.004073    3.204087
H       3.500088   -0.322672    1.238722
H       3.075293    1.296156    1.804018
