19

C       0.048376    1.512419   -0.068617
C      -0.038531   -0.013827    0.104826
C      -1.437476   -0.544638    0.000307
N      -2.126070   -0.854000    1.098917
N      -3.325134   -1.266405    0.644988
C      -3.423108   -1.233779   -0.705470
C      -2.212766   -0.766185   -1.170292
C      -1.831305   -0.552092   -2.599613
O      -2.777863   -1.220965   -3.422765
H       1.084106    1.857046    0.014295
H      -0.331932    1.826756   -1.046320
H      -0.544240    2.021060    0.697497
H       0.595794   -0.500673   -0.647116
H       0.358447   -0.294489    1.085077
H      -4.014821   -1.580011    1.305634
H      -4.308863   -1.547594   -1.232133
H      -1.807136    0.525458   -2.835313
H      -0.810836   -0.932261   -2.776275
H      -2.589630   -0.992866   -4.337536
