23

O      -0.086822    1.422725    0.197757
C      -0.030219    0.027188    0.102804
C      -0.674438   -0.818917    1.173089
C      -1.316400   -0.685251   -0.198110
C      -2.612870    0.078735   -0.382385
C      -3.855152   -0.764342   -0.117700
C      -4.230304   -1.165911    1.339253
C      -5.722453   -0.943624    0.974485
C      -5.255198   -0.097692   -0.240356
H       0.498494    1.694196    0.912003
H       0.876441   -0.355855   -0.366454
H      -0.210179   -1.757446    1.456612
H      -1.149595   -0.282278    1.987866
H      -1.217133   -1.553444   -0.846099
H      -2.612908    0.959285    0.269364
H      -2.656628    0.464814   -1.410681
H      -3.828149   -1.665308   -0.744203
H      -3.927826   -2.153014    1.697199
H      -3.879587   -0.415480    2.055805
H      -6.204276   -1.873385    0.657686
H      -6.361985   -0.459657    1.716599
H      -5.205889    0.968166    0.007963
H      -5.794805   -0.207611   -1.184735
