17

O       0.103030    1.448429   -0.067459
C       0.040801    0.029997   -0.037768
C       0.688811   -0.549766    1.209357
C      -0.141450   -1.264870    1.969799
C      -1.511286   -1.351085    1.364702
C      -2.604878   -0.342267    1.821585
O      -2.051496    0.977611    1.761699
C      -2.518375    0.381636    0.541443
C      -1.402651   -0.549341    0.022629
H      -0.314515    1.745161    0.752029
H       0.560269   -0.289069   -0.948147
H       1.724742   -0.328478    1.444825
H       0.118060   -1.718347    2.920477
H      -1.913697   -2.362816    1.265921
H      -3.434785   -0.489540    2.502777
H      -3.266408    0.931947   -0.016356
H      -1.692315   -1.110254   -0.866589
