22

C       0.091757    1.522584   -0.403442
C       0.008171    0.056290   -0.038419
C       1.224253   -0.833701   -0.093299
C       0.576192   -0.526675    1.240615
C       1.287692    0.251810    2.300539
C       0.702378    1.086161    3.472136
N       2.211130    1.186893    3.747564
C       2.232252   -0.309435    3.397092
C       2.333439    1.398168    2.231529
H       1.069104    1.948592   -0.164253
H      -0.068077    1.657804   -1.478981
H      -0.668174    2.113236    0.120399
H      -0.919117   -0.413690   -0.357601
H       1.136444   -1.835461   -0.499403
H       2.176383   -0.353682   -0.300326
H      -0.014239   -1.337950    1.662592
H       0.235731    2.047546    3.237905
H       0.151050    0.558130    4.256042
H       1.797158   -0.945932    4.173612
H       3.217860   -0.673025    3.091711
H       3.328083    1.166338    1.838763
H       2.000573    2.388236    1.908648
