18

O      -0.099844    1.451373    0.007417
C       0.019382    0.038620   -0.018216
C      -1.388743   -0.542757   -0.008336
C      -1.397666   -2.069226   -0.000684
N      -2.766980   -2.577302   -0.036547
C      -2.824876   -4.031464    0.028276
C      -4.210909   -4.507614    0.041424
N      -5.301784   -4.885241    0.075764
H       0.783961    1.829707   -0.009045
H       0.556063   -0.301803   -0.919129
H       0.583452   -0.330568    0.854397
H      -1.912095   -0.160615    0.877492
H      -1.936690   -0.178240   -0.883054
H      -0.878129   -2.449786   -0.890858
H      -0.830887   -2.444672    0.873390
H      -3.300527   -2.183741    0.732534
H      -2.327725   -4.444184   -0.858867
H      -2.308202   -4.468019    0.903864
