21

C       0.010732    1.322538   -0.247710
O      -0.051841   -0.081814    0.013738
C      -1.285181   -0.581900    0.125730
N      -2.380235    0.067121    0.013460
C      -3.435427   -0.928285    0.234942
C      -2.751026   -2.335720    0.153033
C      -3.262508   -3.312252    1.212010
C      -2.881026   -2.929662   -1.257851
N      -1.351325   -1.934970    0.425835
H       1.071981    1.564732   -0.315010
H      -0.499512    1.563529   -1.184240
H      -0.462116    1.885461    0.561306
H      -3.889035   -0.776702    1.224276
H      -4.235437   -0.825003   -0.506349
H      -4.330854   -3.508083    1.070071
H      -2.738457   -4.272852    1.155352
H      -3.114385   -2.902469    2.214513
H      -2.547899   -2.209389   -2.011685
H      -2.281200   -3.841666   -1.360299
H      -3.922314   -3.190839   -1.473762
H      -0.613275   -2.511993    0.043925
