19

C      -0.037379    1.574985   -0.042191
C      -0.014076    0.040170   -0.023491
O       0.684921   -0.437169    1.120038
C      -1.444698   -0.523169    0.007674
O      -1.989087   -0.145204    1.270647
C       0.777684   -0.503151   -1.241018
N       2.155709   -0.017899   -1.180105
C       0.700650   -1.981053   -1.315052
N       0.683278   -3.133119   -1.414803
H       0.980049    1.963895   -0.009457
H      -0.527433    1.952516   -0.946126
H      -0.595989    1.937841    0.823802
H       0.054878   -0.386365    1.850794
H      -2.039132   -0.109476   -0.820088
H      -1.415545   -1.614420   -0.090775
H      -2.726595   -0.727001    1.472516
H       0.313162   -0.110806   -2.153683
H       2.565563   -0.331102   -0.304382
H       2.702392   -0.421061   -1.933997
