13

C      -0.107115    1.446371    0.137582
C       0.079774   -0.080320   -0.045115
C       0.784260   -0.384364   -1.290448
N       1.309838   -0.599317   -2.295773
C       0.817188   -0.679192    1.168060
O       1.947422   -1.096865    1.117882
C       0.038070   -0.682231    2.392601
C      -0.620315   -0.693955    3.400143
H       0.862852    1.947249    0.180490
H      -0.674438    1.856178   -0.700317
H      -0.651656    1.644386    1.063368
H      -0.912235   -0.547381   -0.087942
H      -1.185201   -0.713498    4.301290
