20

C       0.591915    1.156122    0.662085
N       0.036463    0.029388   -0.072441
C       0.574435   -0.169741   -1.409375
C       2.001837   -0.737267   -1.496624
C       2.155848   -2.095191   -0.816475
O       2.242160   -2.028214    0.614734
C       1.180656   -1.701878    1.394966
O       1.290965   -1.793327    2.587701
C      -0.102720   -1.178761    0.720341
H       1.645565    1.033317    0.966992
H       0.520528    2.058061    0.046177
H       0.005595    1.317970    1.572262
H      -0.103180   -0.852098   -1.941856
H       0.529807    0.790343   -1.935779
H       2.267839   -0.855443   -2.554815
H       2.731419   -0.043454   -1.063561
H       1.347855   -2.777486   -1.112802
H       3.100292   -2.559790   -1.108581
H      -0.794477   -0.997078    1.547541
H      -0.534484   -1.965265    0.089077
