19

C      -0.238921    1.644378    0.015162
C       0.122811    0.163865    0.004047
C       1.436206   -0.326678   -0.695040
C       1.821980   -1.093760    0.576939
C       1.942565   -0.164359    1.738960
O       2.420879    1.169151    1.617502
C       3.753251    1.311695    1.453990
O       4.278446    2.380232    1.362472
C       0.568303   -0.529737    1.303497
H       0.578188    2.254875    0.403064
H      -0.477102    1.987803   -0.997773
H      -1.121742    1.822612    0.639384
H      -0.714202   -0.408326   -0.408848
H       1.245502   -0.979130   -1.548528
H       2.138442    0.453684   -1.002857
H       2.245137   -2.091130    0.604854
H       2.251039   -0.625787    2.673951
H       4.286230    0.342891    1.416419
H      -0.103996   -1.022789    1.997031
