25

C      -0.107466    1.584753   -0.006304
C       0.037784    0.079684    0.031834
C       1.301263   -0.668967   -0.334081
C       2.634836    0.076883   -0.348597
C       3.133973    0.093459    1.129541
C       3.933804   -1.193327    1.401737
C       3.996051    1.319239    1.445967
C       1.815423    0.056495    1.962823
C       0.792895   -0.681643    1.099972
H       0.793325    2.111655    0.317284
H      -0.336053    1.926742   -1.022152
H      -0.926209    1.912039    0.644620
H      -0.866902   -0.430578   -0.293394
H       1.199042   -1.544430   -0.966208
H       3.358237   -0.419448   -1.003085
H       2.526179    1.099153   -0.729852
H       4.836434   -1.235832    0.781803
H       4.244688   -1.250559    2.450994
H       3.334372   -2.083185    1.181381
H       3.447892    2.249712    1.259849
H       4.311753    1.323071    2.495521
H       4.902268    1.337764    0.829791
H       1.967866   -0.454011    2.918936
H       1.485210    1.073256    2.206453
H       0.320276   -1.566347    1.512767
