20

C      -0.201942    1.482380   -0.335221
C      -0.105489   -0.029373   -0.121388
C       0.689272   -0.427752    1.134261
C       0.646393   -1.961265    1.344312
C       1.330647   -2.409308    2.549425
C       1.899410   -2.761882    3.547405
N       2.066216    0.043411    1.082242
C       2.568486    0.990298    1.922298
O       1.930619    1.608773    2.746667
H       0.789340    1.928051   -0.456169
H      -0.786102    1.711314   -1.231462
H      -0.682012    1.972628    0.517386
H      -1.112262   -0.456710   -0.035971
H       0.353514   -0.503704   -1.000496
H       0.255178    0.062693    2.009909
H      -0.403667   -2.276286    1.375298
H       1.081684   -2.456620    0.464337
H       2.394816   -3.073465    4.433346
H       2.711429   -0.424039    0.463553
H       3.653382    1.145943    1.756920
