20

C      -0.053556    1.531022   -0.292264
C      -0.047965    0.050355    0.014628
C       1.191783   -0.763993   -0.107694
N       0.601169   -0.507051    1.206732
C       1.300486    0.378431    2.127138
C       1.825923   -0.469437    3.313355
N       2.715049   -1.575864    2.959660
C       2.492363    0.411671    4.284744
N       3.009813    1.140075    5.017101
H       0.925270    1.993104   -0.140889
H      -0.339213    1.691553   -1.336914
H      -0.780702    2.061757    0.332243
H      -0.992466   -0.445477   -0.205940
H       1.156466   -1.792699   -0.457378
H       2.108202   -0.231057   -0.361238
H       2.146486    0.915631    1.669901
H       0.601909    1.129967    2.512234
H       0.951282   -0.907681    3.808679
H       2.215271   -2.181029    2.314845
H       3.532278   -1.223333    2.468335
