13

O       0.056165   -0.014656   -0.106334
C       0.000580    1.185237   -0.058891
C      -1.262921    2.052614   -0.083735
C      -0.803490    3.348510   -0.761210
O      -1.468335    4.086866   -1.437888
C       0.681841    3.471079   -0.524017
N       1.016567    3.217552    0.894768
C       1.183118    2.122440   -0.086181
H      -2.098014    1.575628   -0.596863
H      -1.561302    2.276428    0.947269
H       1.273799    4.158566   -1.116692
H       1.932542    3.619927    1.085489
H       2.169541    1.748655   -0.334315
