18

C       0.140930    1.586898   -0.032524
C       0.064411    0.057165    0.037476
C       0.813638   -0.488492    1.259850
C      -1.423371   -0.419914    0.033864
O      -2.026998    0.087216    1.216353
C      -2.138625    0.033798   -1.169130
C      -2.750961    0.402377   -2.134420
C      -1.471554   -1.909052    0.049416
N      -1.520876   -3.063041    0.078473
H       1.188281    1.900467   -0.063786
H      -0.357431    1.975997   -0.923792
H      -0.325314    2.037868    0.847138
H       0.509519   -0.364342   -0.871244
H       0.377465   -0.104626    2.185645
H       0.791299   -1.580994    1.297002
H       1.860384   -0.173980    1.218736
H      -2.972712   -0.095786    1.176764
H      -3.288148    0.727026   -2.992085
