18

C       0.176125    1.585917    0.111083
C       0.544268    0.107163    0.059627
N       0.151150   -0.570413    1.307331
C       0.483169   -1.936369    1.394461
C      -0.202701   -3.095682    1.097641
C       0.645892   -4.191393    1.428478
C       1.826063   -3.672175    1.904161
N       1.716112   -2.302652    1.881612
H       0.652850    2.075157    0.965432
H       0.489860    2.094798   -0.805099
H      -0.907704    1.719464    0.208850
H       0.090761   -0.367063   -0.826581
H       1.628657   -0.005380   -0.049957
H      -0.843444   -0.449035    1.461280
H      -1.198017   -3.146874    0.682426
H       0.417267   -5.240497    1.318702
H       2.726107   -4.152618    2.251849
H       2.385121   -1.645294    2.243267
