13

O       0.241930    1.551637    0.047312
C       0.064361    0.175065    0.089144
C       0.600953   -0.481689   -1.192107
O       1.083526    0.191855   -2.063887
C       0.735149   -0.466424    1.274596
N       0.395064   -1.579961    1.854121
C       1.375341   -1.700181    2.809212
N       2.256215   -0.738684    2.826966
O       1.831781    0.096918    1.784568
H       0.714743    1.733375   -0.781744
H      -1.001328   -0.099314    0.157361
H       0.511190   -1.581634   -1.255663
H       1.427397   -2.520847    3.509653
