21

O       0.027552    1.424263    0.248332
C      -0.048210    0.016005    0.160220
C      -1.465618   -0.501707   -0.140929
C      -1.948805   -0.075884   -1.536725
O      -1.938909    1.343677   -1.736119
C      -1.526601   -2.014027   -0.024887
C      -1.761022   -2.674090    1.321797
C      -2.828489   -2.708459    0.257601
O      -3.957587   -1.889331    0.380907
H      -0.403994    1.761804   -0.549145
H       0.645632   -0.379178   -0.604769
H       0.286307   -0.379310    1.125851
H      -2.148293   -0.066334    0.599159
H      -1.275681   -0.476557   -2.303839
H      -2.950482   -0.482556   -1.722452
H      -2.628839    1.718112   -1.177558
H      -0.857183   -2.541748   -0.701066
H      -1.230770   -3.588556    1.564465
H      -1.935721   -2.011430    2.163620
H      -3.012853   -3.658035   -0.244490
H      -4.515958   -2.251816    1.076367
