15

N      -0.052378    1.130712    0.825903
C      -0.022237    0.098829    0.069744
N       1.161338   -0.363470   -0.545717
C       1.590166   -1.657049   -0.882102
O       2.742430   -1.975225   -0.756761
O       0.679823   -2.517749   -1.367368
C      -0.484322   -2.029487   -2.054779
C      -1.536585   -1.489307   -1.132057
C      -1.299838   -0.576175   -0.191128
H       0.871243    1.552019    0.943321
H       1.974832    0.177042   -0.279622
H      -0.177092   -1.274828   -2.789790
H      -0.855708   -2.898097   -2.600469
H      -2.544347   -1.873362   -1.256810
H      -2.097280   -0.211612    0.445445
