18

C      -0.237104    1.521366   -0.044328
N       0.014021    0.090007    0.014812
C       1.154090   -0.472074   -0.750117
C       2.463603    0.233001   -0.282295
O       3.477665   -0.806854   -0.280823
C       2.735658   -1.345976    0.828577
C       2.173794    0.038896    1.247527
C       0.681870   -0.474097    1.198633
C       1.281823   -1.613308    0.326469
H       0.626114    2.146734    0.241404
H      -0.533820    1.795170   -1.062211
H      -1.068031    1.770028    0.624233
H       1.019450   -0.649827   -1.816984
H       2.790056    1.160978   -0.748092
H       3.273069   -2.066372    1.442545
H       2.610602    0.699117    1.991892
H       0.116024   -0.594357    2.122001
H       0.825652   -2.583739    0.157449
