18

C       0.279111    0.991169   -0.471905
O      -0.224924    0.237884    0.632056
C      -1.299201   -0.542040    0.345600
C      -1.386726   -1.862854   -0.002068
C      -0.238376   -2.800724   -0.208881
C      -2.791519   -2.163729   -0.124187
C      -3.478205   -1.011652    0.155808
O      -4.800022   -0.699045    0.212944
N      -2.584494   -0.013562    0.425905
H       1.140490    1.552113   -0.102251
H       0.592593    0.330406   -1.288770
H      -0.473360    1.693064   -0.854007
H      -0.329427   -3.694568    0.419642
H      -0.167826   -3.146838   -1.247571
H       0.705443   -2.311050    0.046877
H      -3.223913   -3.116357   -0.391353
H      -5.303187   -1.500227    0.039453
H      -2.822486    0.894170    0.786418
