15

C       0.010418    1.519884    0.147039
C       1.516106    1.508217   -0.077870
C       2.208414    0.321204    0.648897
C       1.471442   -0.372111    1.744171
C       0.229868   -0.654387    1.334686
C       0.016022   -0.053029   -0.036955
C       1.455776    0.105872   -0.635337
H      -0.390130    1.910836    1.088411
H      -0.490145    2.001873   -0.696828
H       2.116354    2.348804   -0.405406
H       3.291800    0.353381    0.631142
H       1.888693   -0.559984    2.725655
H      -0.565552   -1.082583    1.932536
H      -0.781414   -0.473888   -0.647100
H       1.857623   -0.321025   -1.546348
