17

C       0.101498    1.536457   -0.294606
N       1.037186    2.383913    0.404028
C       1.837253    2.020791    1.302880
O       2.099100    0.827240    1.895038
C       1.460236   -0.385674    1.595743
C       1.203233   -0.921429    0.158561
N       0.300882   -1.922365    0.867348
C      -0.077051   -0.563948    1.442110
C      -0.009231    0.048640    0.009087
H      -0.895784    1.980769   -0.161689
H       0.310042    1.644688   -1.369064
H       2.497860    2.758737    1.757168
H       1.915966   -1.121969    2.255376
H       1.934593   -1.236499   -0.587923
H      -0.433766   -2.207455    0.213981
H      -0.850884   -0.458748    2.204679
H      -0.784781   -0.369017   -0.648224
