18

C      -0.041956    1.674466   -0.153616
C       0.037438    0.146270   -0.051602
O       0.779574   -0.250089    1.096872
C      -1.377597   -0.501697   -0.021719
C      -2.091415   -0.168096    1.203554
C      -2.612310    0.115378    2.250818
C       0.751795   -0.399611   -1.304179
N       1.903630   -1.066539   -1.061368
O       0.278405   -0.222038   -2.412537
H       0.962557    2.099982   -0.082452
H      -0.481983    1.966221   -1.109611
H      -0.651429    2.077612    0.660580
H       0.233221   -0.067683    1.871392
H      -1.929942   -0.180023   -0.909209
H      -1.264854   -1.590034   -0.091164
H      -3.112628    0.359120    3.155539
H       2.218779   -1.197611   -0.115575
H       2.411778   -1.455728   -1.837507
