18

C      -0.151043    1.587133   -0.064361
C       0.040140    0.076891   -0.050060
C       0.734038   -0.597982   -1.240725
C       2.171836   -0.205708   -1.341511
C       1.787477   -1.231930   -0.296880
C       2.309317   -2.557708   -0.286888
N       2.717340   -3.641217   -0.265030
C       1.142419   -0.535363    0.904314
O       2.028960    0.345309    1.550245
H       0.791827    2.116546   -0.221048
H      -0.844293    1.882296   -0.858727
H      -0.571469    1.935025    0.885847
H      -0.915032   -0.416973    0.152750
H       0.228234   -1.102435   -2.054397
H       2.707992   -0.611812   -2.191913
H       2.522110    0.763162   -1.003452
H       0.712384   -1.259160    1.605557
H       1.602368    0.684432    2.343565
