18

C      -0.200475    1.348217    0.315278
C      -0.048177   -0.130512    0.006898
C       0.742487   -0.436159   -1.262204
C       0.951538   -1.949408   -1.377793
N       1.382031   -2.564861   -0.128712
C       1.200338   -1.919545    0.952954
O       0.611388   -0.725609    1.149234
C       1.712497   -2.549194    2.218637
O       1.624095   -2.056608    3.311734
H       0.779739    1.828482    0.389074
H      -0.772397    1.840814   -0.476698
H      -0.725025    1.488690    1.263744
H      -1.040149   -0.599232   -0.063729
H       0.212334   -0.042949   -2.135367
H       1.711771    0.073742   -1.208267
H       0.026107   -2.446408   -1.700040
H       1.699249   -2.184110   -2.143139
H       2.190449   -3.528965    2.021548
