21

C       0.015315    1.589669    0.001733
C      -0.005004    0.060669   -0.072430
C      -1.412919   -0.531825    0.052310
C      -1.431451   -2.061323   -0.015038
C      -2.838075   -2.651428    0.105752
C      -2.827857   -4.176947    0.196041
N      -3.975555   -4.784464   -0.232802
O      -1.881461   -4.810752    0.620796
H       1.033077    1.981563   -0.090840
H      -0.586110    2.033539   -0.799706
H      -0.392600    1.945567    0.954539
H       0.441498   -0.266917   -1.020575
H       0.631495   -0.354684    0.719780
H      -1.861763   -0.202340    1.000457
H      -2.050964   -0.117461   -0.741652
H      -0.980364   -2.395729   -0.957877
H      -0.811399   -2.487373    0.780200
H      -3.320668   -2.277515    1.020168
H      -3.473422   -2.326832   -0.727830
H      -4.790721   -4.260116   -0.497277
H      -4.065546   -5.777710   -0.093382
