21

C       0.031287    1.537461    0.030290
C       0.001972    0.036058   -0.037935
C      -0.096161   -0.647414   -1.179637
C      -0.058090   -2.152694   -1.225186
O       0.547155   -2.726853   -0.080199
C      -0.008252   -2.267003    1.136480
C       1.055274   -2.381882    2.249276
C       1.425419   -0.889068    2.020575
C       0.068844   -0.720626    1.255025
H       0.949770    1.892868    0.514992
H      -0.022874    1.988527   -0.964427
H      -0.804256    1.923490    0.628573
H      -0.191510   -0.131773   -2.132536
H      -1.075013   -2.561957   -1.372198
H       0.541205   -2.490674   -2.078381
H      -0.990770   -2.731263    1.308348
H       0.600454   -2.552600    3.228662
H       1.829352   -3.131403    2.075178
H       1.579814   -0.268350    2.905658
H       2.280632   -0.775622    1.350935
H      -0.700559   -0.354541    1.946168
