13

C      -0.043197   -1.178478    0.335787
C       0.001301   -0.000987    0.105976
C       0.049396    1.432384   -0.171649
C       1.435450    2.000307   -0.170366
N       2.025692    2.649641   -1.122270
C       3.274055    2.970393   -0.599724
C       3.363560    2.484352    0.658562
O       2.183954    1.857315    0.950520
H      -0.080228   -2.220393    0.537204
H      -0.376105    1.648703   -1.156107
H      -0.564069    1.968086    0.565485
H       4.004861    3.520986   -1.169937
H       4.113683    2.481955    1.430067
