16

C      -0.038426    1.519391   -0.001871
C      -0.010268    0.014947   -0.014469
C      -0.024080   -0.710610   -1.203406
C       0.003081   -2.099672   -1.171570
C       0.043829   -2.729909    0.069150
N       0.058163   -2.072046    1.225779
C       0.031733   -0.728995    1.184621
C       0.047958   -0.046591    2.442964
C       0.060611    0.558255    3.483870
H       0.844914    1.928272    0.499929
H      -0.072631    1.918967   -1.018544
H      -0.908913    1.895103    0.546106
H      -0.056184   -0.182184   -2.151571
H      -0.007052   -2.683153   -2.085373
H       0.066016   -3.814929    0.137383
H       0.072326    1.073865    4.412270
