15

O      -0.026922    0.046684    0.004871
C      -0.017167    1.245096    0.010740
C      -1.299971    2.136306    0.033020
C      -0.694148    3.495068    0.031187
C       0.683015    3.517226    0.012156
C       1.256409    2.135855   -0.002506
C       1.020086    4.886188    0.014060
N      -0.072230    5.650786    0.032926
N      -1.110364    4.779005    0.043150
H      -1.919468    1.901883   -0.840932
H      -1.894782    1.893293    0.921657
H       1.875859    1.881896    0.866311
H       1.851643    1.890453   -0.890494
H       1.991906    5.357234    0.002821
H      -2.046961    5.145010    0.057927
