21

C       0.298453    1.581535   -0.020927
C      -0.095515    0.094867   -0.002554
O      -1.523122   -0.024695   -0.097498
C       0.448503   -0.554251   -1.288467
O       0.079381   -1.893736   -1.507729
C       0.786596   -2.854980   -0.754898
C       0.274693   -3.014989    0.678514
C       0.520331   -1.835083    1.583782
C       0.397164   -0.539844    1.289643
H       1.386067    1.709725    0.008788
H      -0.091129    2.068099   -0.919077
H      -0.121988    2.093594    0.851339
H      -1.889411    0.180379    0.769013
H       0.033628    0.002720   -2.134972
H       1.544605   -0.442787   -1.301628
H       0.658557   -3.803258   -1.288481
H       1.863248   -2.617162   -0.742440
H      -0.802264   -3.227825    0.634979
H       0.748550   -3.904955    1.109838
H       0.816333   -2.082210    2.601933
H       0.610629    0.173176    2.085228
