16

O      -0.032869   -0.069164    0.175949
C      -0.028088    1.137992    0.043380
N       1.080112    1.911934   -0.100559
C       2.391258    1.342875   -0.108245
C       3.552237    1.711922   -0.991562
C       3.788080    3.244553   -1.125789
O       2.761008    3.964122   -0.416046
C       3.865433    3.403438    0.320325
C       3.634581    1.880910    0.546686
H      -0.953353    1.746466    0.026051
H       1.005994    2.909984   -0.206144
H       2.301808    0.267365    0.014687
H       4.064135    0.989387   -1.614701
H       4.283164    3.758890   -1.939736
H       4.437587    4.076006    0.946787
H       4.217713    1.304543    1.253906
