19

O      -0.041827    1.459595   -0.099831
C       0.023936    0.054247   -0.004745
C      -0.010794   -0.627573    1.388368
C      -1.492789   -0.171049    1.575798
C      -2.262072   -1.250794    2.336471
C      -1.637779   -2.525263    1.700748
C      -0.665277   -1.878872    0.712821
C      -1.345659   -0.637728    0.077772
O      -2.330407   -0.719386   -0.888485
H       0.846182    1.814469    0.002590
H       0.736266   -0.366538   -0.727513
H       0.769501   -0.638453    2.147642
H      -1.694735    0.878000    1.784135
H      -2.102300   -1.193926    3.417809
H      -3.339664   -1.179730    2.158479
H      -1.120997   -3.154666    2.431922
H      -2.377661   -3.149638    1.191259
H      -0.051092   -2.522599    0.079955
H      -2.569927    0.178904   -1.143198
