17

C      -0.156713    1.600782    0.074389
C       0.002759    0.089445    0.021364
O      -1.247075   -0.554959    0.054996
C       0.872857   -0.622605   -1.054766
C       2.234501    0.089617   -1.030070
C       2.368872    0.115170    0.514459
O       3.223558    0.597257    1.203330
C       1.087219   -0.635645    0.903399
O       1.119074   -1.700829   -0.094285
H       0.795337    2.135961    0.061375
H      -0.765566    1.941776   -0.768172
H      -0.673317    1.887065    0.998580
H      -1.731186   -0.236962    0.824659
H       0.444963   -0.954234   -1.999964
H       3.007955   -0.530182   -1.489939
H       2.275950    1.091103   -1.465092
H       0.936823   -0.952530    1.933829
