19

C      -0.987186    1.744516    0.165040
N      -1.065286    0.349407    0.547767
C      -0.247891   -0.449627    0.005776
N      -0.263865   -1.800792    0.323854
C       0.596420   -2.733425   -0.225624
O       1.444238   -2.433348   -1.042392
C       0.382905   -4.149563    0.281727
C       1.348318   -5.140315   -0.353650
O       1.051259   -6.414532    0.196963
H      -0.202165    1.959968   -0.576596
H      -1.950760    2.066556   -0.246722
H      -0.802376    2.359057    1.053813
H       0.520082   -0.194135   -0.729744
H      -0.956522   -2.088622    1.000224
H       0.499226   -4.169921    1.372551
H      -0.649820   -4.460265    0.079901
H       1.224274   -5.126232   -1.445278
H       2.381964   -4.833220   -0.142885
H       1.653117   -7.054952   -0.192807
