16

C      -0.455037    1.450657    0.268772
C       0.289094    0.150330   -0.075360
C       0.882205   -0.517613    1.128412
N       2.187242   -0.602181    1.264652
O       2.417700   -1.250962    2.467413
C       1.226575   -1.548951    3.039446
C       0.214386   -1.107413    2.238075
C       1.237959   -2.218548    4.278234
C       1.240221   -2.790144    5.337053
H       0.221423    2.175743    0.730396
H      -0.874832    1.901868   -0.634813
H      -1.278123    1.267916    0.966806
H      -0.399075   -0.547388   -0.567338
H       1.098757    0.354020   -0.781725
H      -0.844053   -1.196585    2.415682
H       1.244326   -3.295001    6.271847
