21

C       0.081746    1.289228    0.175867
O       0.016898   -0.114967    0.020401
C      -1.305422   -0.651845    0.025349
C      -1.287981   -1.972401   -0.735965
C      -2.707306   -2.551002   -0.822551
C      -3.428007   -2.473457    0.497223
C      -3.010296   -1.738243    1.526251
C      -1.776032   -0.874764    1.477877
O      -0.742688   -1.496063    2.235537
H       1.136341    1.569650    0.118269
H      -0.467286    1.804926   -0.625594
H      -0.318622    1.627364    1.142071
H      -1.990546    0.054555   -0.469666
H      -0.859880   -1.820758   -1.730803
H      -0.637104   -2.666454   -0.194106
H      -3.290613   -2.018174   -1.588930
H      -2.669636   -3.593501   -1.161380
H      -4.337894   -3.062062    0.593522
H      -3.557828   -1.743459    2.464644
H      -2.018842    0.104728    1.925529
H       0.079004   -1.101105    1.912302
