21

O      -0.088679    1.459085   -0.009907
C      -0.049035    0.041474   -0.009969
C      -1.433933   -0.496806    0.119267
C      -2.585241    0.160876    0.226646
C      -3.326363    1.417951   -0.162376
C      -4.399606    0.446382   -0.785621
C      -3.798098   -0.716654    0.085713
C      -3.220775   -2.050259   -0.427349
C      -1.730813   -1.997279    0.046040
H       0.814682    1.782401   -0.068937
H       0.409942   -0.346183   -0.938415
H       0.575390   -0.342201    0.817924
H      -3.737335    1.964663    0.693475
H      -2.810046    2.122014   -0.816181
H      -5.450848    0.700823   -0.627889
H      -4.220388    0.285979   -1.852250
H      -4.374482   -0.835557    1.012371
H      -3.748011   -2.938255   -0.065895
H      -3.247667   -2.073905   -1.522883
H      -1.058682   -2.514607   -0.649839
H      -1.600971   -2.491290    1.020094
