19

N       0.083498    1.506827   -0.012003
C      -0.083691    0.051243   -0.024801
C      -1.577158   -0.325795    0.049179
C      -2.172957    0.061623    1.393030
C      -3.547919   -0.536499    1.765789
C      -2.788504   -1.184011    2.941132
O      -1.528273   -0.648621    2.481757
C       0.555897   -0.593182   -1.191578
N       1.059223   -1.053797   -2.125453
H       1.064550    1.746478    0.091866
H      -0.216965    1.897189   -0.901103
H       0.393267   -0.348668    0.877232
H      -2.124263    0.173459   -0.760747
H      -1.681207   -1.405633   -0.099600
H      -2.089307    1.144235    1.539591
H      -4.322493    0.182767    2.034188
H      -3.949027   -1.240113    1.033181
H      -3.052441   -0.801960    3.934822
H      -2.781250   -2.279578    2.974124
