17

C      -0.097778    1.487593    0.007625
C       0.011857   -0.012285   -0.014233
C       0.235649   -0.727524   -1.182757
N       0.332399   -2.064584   -1.195673
C       0.203873   -2.676197   -0.035421
O       0.294432   -4.023682   -0.001663
C      -0.024634   -1.983838    1.175349
C      -0.165228   -2.719510    2.476315
N      -0.115970   -0.661745    1.159126
H       0.020790    1.910604   -0.993280
H      -1.070429    1.798889    0.402328
H       0.666530    1.922081    0.660163
H       0.341559   -0.222982   -2.139277
H       0.449757   -4.306968   -0.913778
H       0.733593   -3.306525    2.695084
H      -0.335399   -2.004597    3.282280
H      -0.998756   -3.429507    2.438336
