22

C      -0.029968    1.586976    0.122903
C      -0.042844    0.059922    0.232139
C      -1.324858   -0.560292   -0.340347
C      -1.401084   -2.067987   -0.165819
C      -0.391740   -2.885031   -0.949434
N      -1.737531   -2.500376    1.198551
C      -2.729049   -2.718407    0.111802
C      -3.971569   -2.000094    0.177381
C      -5.025203   -1.420584    0.199982
H       0.887626    2.009097    0.544603
H      -0.096153    1.911907   -0.921686
H      -0.877550    2.027602    0.659183
H       0.836244   -0.345775   -0.284074
H       0.047352   -0.238629    1.283411
H      -2.191728   -0.110190    0.152770
H      -1.411758   -0.320823   -1.408982
H       0.630413   -2.666064   -0.622585
H      -0.561756   -3.958877   -0.818846
H      -0.451530   -2.662704   -2.020335
H      -1.286233   -3.387005    1.414128
H      -2.830185   -3.736894   -0.259428
H      -5.952293   -0.903893    0.229393
