19

C      -0.019972    1.544701    0.065839
C       1.290239    0.809103   -0.005022
C      -0.010759    0.029523    0.000216
C      -0.109093   -0.696049   -1.381974
C      -0.842940    0.202791   -2.365444
C       0.024161    0.971284   -3.028861
C       1.433533    0.564817   -2.736805
C       2.008937    0.475799   -1.298365
C       1.347127   -0.710751   -1.939398
H      -0.274367    1.982770    1.026669
H      -0.357886    2.118301   -0.786629
H       1.926409    0.832791    0.874864
H      -0.337512   -0.517280    0.878614
H      -0.552047   -1.686970   -1.263243
H      -1.919875    0.327655   -2.351277
H      -0.229669    1.787437   -3.695695
H       2.182887    0.684004   -3.513287
H       3.092381    0.531025   -1.263749
H       1.849137   -1.631689   -2.212893
