22

C      -0.482217    1.322272    0.000882
N       0.019820   -0.042599    0.037720
C       1.402143   -0.267114   -0.367616
C       0.991705   -0.448095    1.056036
C       1.508599    0.463845    2.154810
C       0.571619    0.538483    3.395439
C       1.502589    0.563223    4.634670
C       2.804248    0.024331    4.090440
C       2.811202   -0.023567    2.760318
H       0.272308    2.099691    0.199336
H      -0.898353    1.511809   -0.994068
H      -1.290495    1.433418    0.731140
H       1.583196   -1.120941   -1.016021
H       2.011821    0.608686   -0.593615
H       0.823769   -1.468487    1.403572
H       1.669984    1.466647    1.735651
H      -0.109144    1.392475    3.355842
H      -0.047083   -0.365161    3.423003
H       1.640310    1.582258    5.023583
H       1.107781   -0.028851    5.468134
H       3.639234   -0.243408    4.729034
H       3.646113   -0.340351    2.144508
