17

C      -0.015085    1.422812   -0.023277
N      -0.027589   -0.019909    0.017037
N      -0.063198   -0.741043   -1.132142
C      -0.056116   -2.005354   -0.725884
C       0.008601   -2.130529    0.679486
C       0.040261   -3.372372    1.515326
C       0.032465   -0.814500    1.118750
N       0.030589   -0.261673    2.407313
H       1.004062    1.827192    0.023623
H      -0.471520    1.735109   -0.962626
H      -0.591681    1.814916    0.818721
H      -0.089993   -2.800683   -1.457970
H       0.664770   -3.243664    2.408356
H      -0.955404   -3.680639    1.859848
H       0.458073   -4.211788    0.951400
H      -0.013730   -0.984183    3.114447
H       0.836738    0.325447    2.594155
