18

C      -0.005791    1.454580   -0.006188
N      -0.002543    0.014576   -0.020815
C      -1.084786   -0.974724   -0.065724
C      -1.748234   -1.187795   -1.430690
C      -0.690892   -2.010835   -2.193666
O      -0.070524   -2.837403   -1.207845
C       0.022048   -2.082767   -0.028057
C       1.036328   -0.887399   -0.016491
O       2.229909   -0.738430   -0.011113
H       1.035275    1.785603    0.023286
H      -0.481574    1.871087   -0.902324
H      -0.527422    1.846083    0.875703
H      -1.782353   -0.907944    0.773473
H      -2.664831   -1.771471   -1.299566
H      -2.007168   -0.255216   -1.938980
H      -1.108535   -2.666463   -2.960443
H       0.051752   -1.352312   -2.666419
H       0.079468   -2.753909    0.829628
