20

C      -0.208909    1.544195    0.039937
C       0.095496    0.042559   -0.065128
C       0.782417   -0.505233    1.154745
C       2.268901   -0.336322    1.477295
O       2.349470   -1.674638    2.034816
C       0.985703   -1.915994    1.671555
C       0.056862   -0.991249    2.405589
C       0.308256   -0.509774    3.816972
H       0.708974    2.126502    0.175429
H      -0.704346    1.911212   -0.864199
H      -0.862489    1.753070    0.893061
H      -0.838688   -0.508657   -0.229949
H       0.719165   -0.143170   -0.950180
H       2.892815   -0.260319    0.577991
H       2.566150    0.436104    2.196411
H       0.737924   -2.894360    1.273304
H      -0.986816   -1.204190    2.175532
H       1.376884   -0.513942    4.044135
H      -0.077139    0.503441    3.973910
H      -0.182460   -1.169267    4.540812
