18

C      -0.085502    1.559896    0.055365
C      -0.049145    0.028644    0.009684
C      -1.461723   -0.566379   -0.010827
C       0.756187   -0.483974   -1.213003
C       2.155820   -0.089242   -1.207536
C       3.321573    0.237779   -1.187745
C       4.631777    0.604973   -1.166323
C       5.794624    0.930836   -1.147449
H       0.923458    1.981290    0.071465
H      -0.605650    1.964166   -0.821576
H      -0.615440    1.910468    0.946544
H       0.466311   -0.331219    0.909211
H      -2.010256   -0.244556   -0.904299
H      -1.438582   -1.661326   -0.008555
H      -2.034442   -0.241305    0.863266
H       0.694562   -1.579768   -1.251901
H       0.278881   -0.120011   -2.134281
H       6.816586    1.217200   -1.131021
