18

C       0.042490    1.566115    0.010013
C      -0.005195    0.027066    0.002108
C      -1.365538   -0.501957    0.012256
C      -2.501763   -0.902676    0.021072
C      -3.859023   -1.434435    0.031227
C      -3.883604   -2.986732    0.023215
C      -5.239454   -3.519370    0.033262
C      -6.370366   -3.926577    0.041786
H       1.079122    1.915999    0.002022
H      -0.466549    1.974716   -0.867096
H      -0.449679    1.965108    0.901064
H       0.526829   -0.350133   -0.880883
H       0.543574   -0.359648    0.870618
H      -4.401657   -1.078343    0.914860
H      -4.418400   -1.069045   -0.838055
H      -3.344856   -3.346699   -0.860805
H      -3.328184   -3.356020    0.892957
H      -7.362887   -4.302310    0.049160
