19

C       0.027903    1.574342    0.067726
C       0.122094    0.064915    0.049499
O      -0.831420   -0.600274    0.899639
C       0.559575   -0.687913    1.241325
C       1.171714   -2.070788    1.078585
O       2.468338   -2.079778    0.505228
C       2.660025   -1.242490   -0.637197
C       1.491841   -1.169088   -1.602107
C       0.344569   -0.567338   -1.288966
H       0.954482    2.027771   -0.299367
H      -0.789192    1.912930   -0.578758
H      -0.167463    1.933022    1.081615
H       0.840220   -0.121636    2.129735
H       1.286666   -2.558002    2.051855
H       0.467376   -2.665383    0.483650
H       2.916024   -0.225699   -0.303345
H       3.543040   -1.646982   -1.138959
H       1.613719   -1.630544   -2.578246
H      -0.474103   -0.508521   -2.003038
