23

C      -0.136274    1.582475   -0.098180
C      -0.046115    0.082800    0.052567
N       1.266767   -0.542265   -0.178061
C       0.658709   -0.618940    1.164626
C       1.381355    0.084978    2.267011
N       0.789289   -0.016242    3.617978
C       2.121200   -0.602836    3.367545
C       2.187171   -2.114000    3.464943
C       3.331650    0.107163    3.942720
H       0.775647    2.074141    0.247414
H      -0.277107    1.852768   -1.150354
H      -0.984474    1.981404    0.468748
H      -0.913847   -0.449852   -0.336939
H       1.169705   -1.428109   -0.665907
H       0.218266   -1.567040    1.463196
H       1.794932    1.047308    1.973449
H       0.875183    0.871554    4.107108
H       1.254857   -2.579099    3.140933
H       3.007067   -2.509488    2.855106
H       2.364038   -2.419493    4.502632
H       3.438960   -0.111807    5.012071
H       4.252926   -0.216645    3.445858
H       3.251812    1.192803    3.824350
