22

C       0.499742    1.441323    0.169164
C      -0.224548    0.127300   -0.147134
C       0.399907   -0.584091   -1.327872
N       1.609242   -1.389456   -1.079008
C       0.383939   -2.052445   -1.582494
C      -0.176213   -3.062072   -0.598542
O       0.702011   -4.188029   -0.499416
C       0.406732   -2.542471   -3.021770
O       1.338011   -3.592176   -3.219424
H       1.551087    1.252393    0.406939
H       0.466187    2.129096   -0.683223
H       0.043023    1.948306    1.024206
H      -0.197855   -0.521091    0.733370
H      -1.281336    0.325362   -0.368045
H       0.409978    0.023695   -2.234504
H       2.280717   -1.295047   -1.837393
H      -0.333210   -2.614008    0.388645
H      -1.134873   -3.457973   -0.948899
H       1.549986   -3.824611   -0.211501
H      -0.611582   -2.847018   -3.318386
H       0.708375   -1.727741   -3.690896
H       1.201463   -4.215383   -2.491013
