16

C       0.002372    1.579410   -0.199177
C      -0.013728    0.098760    0.223929
C      -1.350762   -0.480859    0.229867
C      -2.460314   -0.950071    0.218163
C      -3.782692   -1.499551    0.229896
O      -4.342590   -1.955896   -1.012951
C      -4.051429   -2.941425   -0.031100
C      -2.970931   -3.860107   -0.316555
N      -2.126857   -4.622646   -0.519284
H       1.026102    1.963716   -0.185604
H      -0.398278    1.699246   -1.209034
H      -0.603008    2.185347    0.480069
H       0.623541   -0.488399   -0.448711
H       0.424193   -0.006736    1.224557
H      -4.506945   -0.996408    0.870005
H      -4.918147   -3.402489    0.440026
