19

C       0.038103    1.517918   -0.140789
C       1.350055    0.750817   -0.036040
C       2.099797    0.834645    1.235637
C       1.630043    0.390242    2.404396
C       0.321357   -0.314402    2.519019
O      -0.807809    0.512982    2.941988
C      -1.654311   -0.097776    1.943561
C      -0.432669   -0.700750    1.219039
C       0.021830    0.017057   -0.039283
H      -0.248884    2.091911    0.733418
H      -0.217405    1.969184   -1.093582
H       1.953079    0.701368   -0.936999
H       3.077591    1.308788    1.193945
H       2.217832    0.504616    3.310530
H       0.413772   -1.167018    3.208402
H      -2.332134   -0.842865    2.383859
H      -2.240534    0.644336    1.391456
H      -0.479517   -1.775740    1.032833
H      -0.215439   -0.505793   -0.960729
