20

C       0.008819    1.532629    0.021642
C      -0.016150    0.025673    0.093192
C      -1.333493   -0.697125   -0.228654
C      -1.338435   -1.993630    0.583642
C      -2.637427   -2.664911    0.937490
O      -0.252920   -2.883093    0.244527
C      -0.106628   -2.028269    1.393619
C       0.718163   -0.785863    1.116660
N       1.242841   -0.650313   -0.249560
H       0.997299    1.906376    0.299303
H      -0.204271    1.879211   -0.996453
H      -0.737395    1.976166    0.690338
H      -2.180084   -0.074405    0.083645
H      -1.455273   -0.890457   -1.301045
H      -3.176168   -2.970569    0.033725
H      -2.452577   -3.557750    1.539941
H      -3.286175   -1.986730    1.501508
H      -0.028274   -2.541475    2.347992
H       1.318625   -0.362282    1.915537
H       1.058758   -1.524214   -0.741416
