18

C      -0.066367    1.314667   -0.150257
C       0.079786   -0.187022    0.145144
C       0.764193   -0.421856    1.494375
N      -1.227178   -0.837380    0.166561
C      -1.709310   -1.266793   -0.925427
N      -1.269451   -1.286681   -2.247390
N      -2.156620   -1.915822   -3.077444
N      -3.147625   -2.281903   -2.382274
N      -2.931085   -1.903501   -1.097025
H       0.908234    1.814330   -0.143773
H      -0.530491    1.487211   -1.127235
H      -0.701555    1.784096    0.607456
H       0.731050   -0.626982   -0.634476
H       0.157066    0.002448    2.300386
H       0.876877   -1.492309    1.687333
H       1.754867    0.043628    1.520758
H      -0.404421   -0.941123   -2.620461
H      -3.592840   -2.131969   -0.376252
