16

O       0.032962    0.437960    1.203790
C      -0.001442    1.309244    0.358995
C      -1.366141    1.814467   -0.133113
O      -1.531456    3.227084    0.012270
C      -1.186969    4.115823   -0.953504
N      -0.452581    4.058292   -1.977086
C       0.356117    2.900556   -2.358319
C       1.413691    2.553028   -1.326850
C       1.247578    1.895752   -0.173256
H      -1.568963    1.498946   -1.159986
H      -2.115327    1.364697    0.519605
H      -1.675199    5.060888   -0.714133
H      -0.253510    2.022447   -2.596276
H       0.862889    3.168962   -3.288794
H       2.420734    2.882736   -1.570957
H       2.110820    1.682602    0.450716
