17

C      -0.022556    1.391766   -0.097052
N      -0.052335   -0.058135   -0.133804
C      -1.151243   -0.651974   -0.058854
O      -1.252768   -2.018649   -0.086309
C      -2.596391   -2.337892    0.021792
C      -2.973811   -3.768074    0.018203
C      -3.304901   -1.213597    0.111249
N      -4.668570   -0.993749    0.234379
O      -2.411268   -0.123164    0.060400
H       0.678552    1.718829    0.679033
H       0.359386    1.775623   -1.050780
H      -0.995818    1.859984    0.096329
H      -2.501380   -4.302197    0.849977
H      -4.057853   -3.853526    0.111008
H      -2.655661   -4.257131   -0.909142
H      -5.046494   -0.462034   -0.544250
H      -4.905612   -0.504191    1.092256
