23

C       0.054990    1.594488   -0.132920
C      -0.016863    0.065960   -0.032550
C       0.731409   -0.630236   -1.198523
C       2.128939   -0.888903   -0.618539
C       1.791831   -1.175291    0.845245
O       0.695923   -0.324419    1.162207
C      -1.466951   -0.388168    0.073255
C      -1.835557   -1.671624    0.768156
C      -2.196789   -0.342496    1.388968
H       1.087687    1.928704   -0.272935
H      -0.543447    1.959013   -0.974657
H      -0.329707    2.047472    0.784568
H       0.240838   -1.578516   -1.441443
H       0.744637   -0.017964   -2.103599
H       2.655614   -1.713903   -1.104851
H       2.755225    0.005901   -0.696306
H       1.510651   -2.232188    0.978717
H       2.608987   -0.952947    1.539064
H      -2.052478   -0.136692   -0.808016
H      -2.625973   -2.280080    0.342472
H      -1.038774   -2.230402    1.245083
H      -1.624617   -0.042368    2.259053
H      -3.236895   -0.035540    1.395498
