20

C       0.125793    1.424853    0.257376
C      -0.110789   -0.040900   -0.115801
C       0.831079   -0.512988   -1.212722
O       0.537445   -1.885091   -1.489269
C       1.328495   -2.457869   -2.474834
C       2.717000   -2.956524   -2.103080
C       1.593204   -3.933789   -2.321016
C       1.131165   -1.927634   -3.810892
N       0.969364   -1.484282   -4.867001
H       1.146426    1.585503    0.621649
H      -0.027463    2.085479   -0.602706
H      -0.561573    1.742367    1.046321
H       0.022743   -0.683878    0.761822
H      -1.141952   -0.185672   -0.456682
H       0.698502    0.087498   -2.124422
H       1.881403   -0.413857   -0.898804
H       3.504755   -2.889594   -2.843917
H       3.019146   -2.757511   -1.081457
H       1.136841   -4.384219   -1.447666
H       1.596564   -4.545079   -3.215093
