18

O      -0.057451    1.397670   -0.008684
C       0.020951   -0.018211    0.028292
C      -1.421758   -0.551540    0.056157
C      -1.449763   -2.072951   -0.144788
C      -0.640880   -2.461729   -1.382377
O       0.689676   -1.963724   -1.311837
C       0.729390   -0.560756   -1.239527
C       0.758319   -0.453321    1.235588
N       1.356446   -0.751733    2.178504
H       0.830472    1.760988    0.089435
H      -1.905341   -0.255046    0.990442
H      -1.948448   -0.045368   -0.761405
H      -1.026297   -2.574770    0.732362
H      -2.483241   -2.418952   -0.251868
H      -0.550625   -3.546832   -1.474889
H      -1.132630   -2.079092   -2.292959
H       0.229195   -0.091096   -2.102297
H       1.784173   -0.269391   -1.245195
