23

C      -0.139269    1.585003   -0.354841
C       0.122210    0.081979   -0.290949
C       0.860925   -0.684676   -1.387595
C       2.352709   -0.815414   -0.994372
C       2.573612   -0.132866    0.355226
C       3.073458    1.303455    0.491938
C       1.122657   -0.600269    0.695543
C       1.313646   -1.737517   -0.407048
C       1.173092   -3.223007   -0.367861
H       0.717053    2.154919   -0.717294
H      -0.974874    1.789278   -1.034122
H      -0.415799    1.979874    0.629558
H      -0.841945   -0.420536   -0.137944
H       0.553852   -0.840575   -2.415728
H       3.093606   -1.063128   -1.746279
H       3.242964   -0.778527    0.938849
H       2.610412    1.988831   -0.218921
H       2.892233    1.690239    1.501386
H       4.155147    1.339625    0.318656
H       0.834810   -0.757948    1.735157
H       0.156137   -3.528179   -0.093445
H       1.393870   -3.657243   -1.349391
H       1.860202   -3.677562    0.355943
