19

C      -0.004586    1.505024   -0.008205
C      -0.005679   -0.019081   -0.028717
C       0.737847   -0.614636   -1.229079
C       1.976952   -0.886178   -0.370734
C       1.103141   -0.657765    0.881751
O       0.716603   -1.939858    1.370827
C       0.516820   -2.773097    0.228505
C       1.177475   -2.030513   -0.934881
O       1.606916   -2.750601   -2.042543
H       1.006538    1.900231   -0.158234
H      -0.641200    1.913649   -0.800119
H      -0.377304    1.881801    0.950372
H      -1.014243   -0.402216    0.167596
H       0.699596   -0.271349   -2.256766
H       3.029992   -0.708063   -0.541085
H       1.469518   -0.063996    1.718826
H       1.006157   -3.741782    0.397768
H      -0.553192   -2.957046    0.062056
H       2.328640   -3.327067   -1.766003
