19

C      -0.753608    1.264317   -0.047450
C       0.181342    0.058536    0.011448
C       1.197913   -0.014094   -1.182144
C       2.363679   -0.671796   -0.516864
C       2.292524   -0.690754    0.854920
C       1.028598   -0.031930    1.329301
C       3.494651   -1.299063    1.269283
N       4.251480   -1.636332    0.221965
N       3.541951   -1.233802   -0.862867
H      -0.187869    2.202194   -0.003442
H      -1.341033    1.271572   -0.971970
H      -1.456477    1.260466    0.792350
H      -0.422744   -0.855188   -0.038812
H       0.785953   -0.564621   -2.034802
H       1.454264    0.991311   -1.545166
H       1.220988    0.971124    1.735493
H       0.491984   -0.585832    2.106779
H       3.852428   -1.518100    2.264951
H       3.923393   -1.405332   -1.777193
