18

N      -0.251039    1.848857   -1.128570
C      -0.191289    0.644127   -0.302322
C      -1.621361    0.266430    0.146308
C      -1.694065   -0.521999    1.449567
N      -2.939102   -0.617607    1.984114
O      -0.726366   -1.035893    1.995600
C       0.468823   -0.531788   -1.066740
N       0.929008   -1.538187   -0.286393
O       0.552998   -0.515700   -2.284149
H       0.666173    2.287146   -1.127349
H      -0.373870    1.531858   -2.091019
H       0.391925    0.854370    0.598966
H      -2.179861    1.201413    0.261208
H      -2.135284   -0.304073   -0.638363
H      -3.734464   -0.156687    1.578692
H      -3.053979   -1.119231    2.849532
H       0.644490   -1.569432    0.686727
H       1.255209   -2.374977   -0.743391
