18

C      -0.302644    1.551837   -0.027903
C       0.021527    0.063638   -0.021739
C       1.185076   -0.519369   -0.903175
C       1.725053   -1.259053    0.328599
C       2.151142   -0.253058    1.391587
C       2.776503    1.003463    1.083170
N       3.284925    2.013577    0.834256
C       0.675590   -0.606169    1.198235
O      -0.019585   -1.195071    2.232425
H       0.580499    2.167535    0.156424
H      -0.720677    1.847259   -0.996096
H      -1.051461    1.790580    0.736176
H      -0.885597   -0.511721   -0.235133
H       0.832500   -1.185718   -1.691612
H       1.868075    0.216441   -1.336167
H       2.116101   -2.268256    0.357400
H       2.544674   -0.727206    2.286042
H      -0.296764   -0.508662    2.850350
