19

N       0.013418    0.871391   -0.924908
C      -0.148121   -0.225791   -0.325608
O      -0.947959   -1.173539   -0.868137
C      -1.073237   -2.367096   -0.131193
C      -2.043637   -2.425749    1.027280
C      -2.354235   -3.164845   -0.250196
N      -3.521720   -2.866808   -1.026950
C      -3.871879   -1.518157   -1.460642
C      -3.392533   -2.532282   -2.443331
H       0.643360    1.468783   -0.393512
H       0.298354   -0.532044    0.629282
H      -0.142120   -2.926433   -0.063270
H      -1.779157   -2.975384    1.923834
H      -2.620323   -1.522472    1.198991
H      -2.185470   -4.238808   -0.223467
H      -4.931680   -1.286734   -1.390233
H      -3.200376   -0.695331   -1.244849
H      -2.392454   -2.381624   -2.841804
H      -4.089140   -3.034232   -3.109473
