23

C       0.676090    1.581575    0.073164
C       0.113390    0.154639   -0.040245
C       0.668061   -0.614352   -1.215075
C       1.522566   -1.578174   -0.861387
C       2.262389   -2.502401   -1.777208
C       1.699583   -1.637058    0.646541
C       3.075386   -1.131909    1.116014
C       0.495999   -0.791228    1.144305
O       0.808473   -0.148395    2.368423
H       1.767994    1.580118    0.125196
H       0.380867    2.177942   -0.796526
H       0.301982    2.085515    0.969855
H      -0.980880    0.237026   -0.107595
H       0.408101   -0.372161   -2.241671
H       2.016095   -2.311683   -2.825507
H       3.348356   -2.399294   -1.661028
H       2.025448   -3.551408   -1.556639
H       1.593749   -2.669572    1.006356
H       3.283362   -0.124506    0.744566
H       3.118129   -1.104053    2.206990
H       3.870190   -1.793825    0.757231
H      -0.347610   -1.481869    1.292693
H       0.008481    0.270355    2.699792
