25

C      -0.411353    1.536744    0.060125
C      -0.088365    0.041796    0.008845
C       0.727781   -0.442770    1.215302
O       0.055262   -0.161230    2.443525
C       1.089307   -1.931374    1.101069
C       1.899523   -2.511947    2.273748
C       1.893384   -4.045876    2.242256
C       3.333745   -1.978888    2.283196
O       3.988507   -2.477270    3.442182
H       0.503321    2.138426    0.015448
H      -1.048137    1.835215   -0.778058
H      -0.924909    1.786041    0.992244
H      -1.019955   -0.541849   -0.037234
H       0.462927   -0.195451   -0.909859
H       1.644474    0.157677    1.274176
H      -0.757606   -0.680022    2.453431
H       0.151960   -2.500168    1.009424
H       1.628720   -2.096170    0.157734
H       1.429945   -2.176427    3.205922
H       2.307923   -4.420555    1.297767
H       2.496027   -4.450156    3.058094
H       0.874992   -4.437551    2.335427
H       3.851220   -2.306773    1.364392
H       3.330791   -0.878858    2.284983
H       4.884334   -2.129162    3.454411
