15

N       0.018103   -1.145636   -0.024003
C       0.020223    0.009711   -0.008752
C       0.011183    1.471670   -0.039024
N      -0.299516    2.142657    1.251288
C       0.836094    3.085508    1.094483
C       2.089143    2.652151    1.889831
N       2.385406    1.645850    0.831935
C       1.383270    2.219631   -0.075192
H      -0.627438    1.796286   -0.871830
H      -1.217402    2.568454    1.284528
H       0.587693    4.145649    1.032443
H       2.833487    3.455602    1.968576
H       1.904810    2.221969    2.878629
H       3.333798    1.634056    0.481741
H       1.722230    2.583185   -1.046147
