14

C      -0.103586    1.667842    0.056591
C       0.046706    0.157281   -0.030620
O       1.162387   -0.293827   -0.839350
C       1.836032   -0.962649    0.245996
C       0.724904   -0.520210    1.199194
O       0.485654   -0.607777    2.359921
C      -1.239717   -0.535663   -0.463779
O      -2.338943   -0.173766   -0.140427
H       0.780476    2.128471    0.503317
H      -0.249032    2.083728   -0.944423
H      -0.982475    1.899496    0.662409
H       1.909709   -2.048495    0.102499
H       2.832633   -0.554549    0.453467
H      -1.059885   -1.423362   -1.108528
