20

C      -0.026099    1.537086    0.016971
C       0.010156    0.012761    0.004892
C       0.677854   -0.615320   -1.250740
C       0.167003   -2.071796   -1.217500
N      -1.184479   -2.024049   -0.607108
C      -1.264991   -1.859412    0.884824
C      -0.010155   -1.672543    1.672244
C       0.679216   -0.622607    1.220716
C      -1.368896   -0.692051   -0.030621
H       0.984976    1.958378    0.017677
H      -0.546798    1.922218   -0.866964
H      -0.543049    1.913132    0.905661
H       0.316341   -0.101933   -2.150041
H       1.770504   -0.544332   -1.241930
H       0.074984   -2.504072   -2.217525
H       0.836507   -2.714793   -0.637705
H      -2.122440   -2.359971    1.323502
H       0.291448   -2.337517    2.472965
H       1.660929   -0.310256    1.562546
H      -2.281325   -0.144419   -0.252345
