12

C      -0.016834    1.509347    0.040861
C      -0.012570    0.026422    0.002332
N      -0.048135   -0.748102   -1.054418
N      -0.028950   -2.106932   -0.690605
C       0.017961   -2.076226    0.602869
O       0.059468   -2.913558    1.647667
N       0.097812   -2.058953    2.809534
N       0.080053   -0.856592    2.458857
N       0.030984   -0.810680    1.108440
H       0.886856    1.899476    0.520338
H      -0.060152    1.877378   -0.984818
H      -0.881327    1.892446    0.592737
