18

C      -0.054824    1.514720    0.037158
C      -0.020565   -0.003050   -0.062599
O      -1.278765   -0.517305   -0.402009
C       1.229381   -0.657190   -0.699821
O       2.031812   -0.138424    0.479786
C       0.788907   -0.773805    1.046421
C       0.122669   -1.707588    2.086244
N      -0.153833   -2.597355    0.877012
C       1.017887   -1.963567    0.188266
H       0.911572    1.917471    0.335406
H      -0.324693    1.949442   -0.934185
H      -0.814251    1.821412    0.764429
H      -1.758857    0.176002   -0.865009
H       1.712966   -0.501382   -1.669612
H       0.823711   -2.139898    2.810231
H      -0.776613   -1.341266    2.588670
H      -0.020606   -3.588133    1.053426
H       1.970895   -2.473094    0.357516
