18

C      -0.179567    1.602295   -0.044403
C       0.052273    0.094221   -0.044122
C       0.696313   -0.574974   -1.264948
C       2.154065   -0.243912   -1.403290
O       2.735243    0.998995   -1.136577
C       1.775507   -1.240303   -0.353632
C       1.180385   -0.535671    0.856903
O       2.116995    0.336324    1.492167
H       0.724794    2.147662   -0.315807
H      -0.957276    1.863937   -0.769950
H      -0.525367    1.949476    0.937533
H      -0.885743   -0.415442    0.200786
H       0.139903   -1.030154   -2.076722
H       2.603124   -0.699659   -2.283871
H       2.826583    1.062469   -0.175170
H       2.153800   -2.255521   -0.344362
H       0.765920   -1.231591    1.595260
H       1.645606    0.870269    2.140617
