19

C       0.001992    1.521001    0.018678
C      -0.021059   -0.014026    0.005144
C       0.688449   -0.563485   -1.259812
O       0.803683   -1.966170   -1.231187
C       1.529331   -2.422216   -0.096779
C       0.846774   -1.971484    1.194423
N       0.617887   -0.520693    1.233757
C      -1.427429   -0.473931    0.000063
N      -2.531866   -0.811453   -0.026626
H       1.037953    1.874847   -0.009723
H      -0.524816    1.927912   -0.847748
H      -0.471343    1.894473    0.928877
H       0.133713   -0.310236   -2.167768
H       1.684583   -0.088754   -1.310127
H       1.566009   -3.512753   -0.173057
H       2.563778   -2.036553   -0.133538
H      -0.125057   -2.470099    1.282554
H       1.444021   -2.252207    2.067733
H       1.505130   -0.035936    1.342186
