23

C       0.152383    1.439326    0.299973
C       0.018608   -0.047305   -0.048790
C       0.660753   -0.460865   -1.377327
C       0.021069    0.232844   -2.583070
C       2.229700   -0.389519   -1.423359
C       2.225841   -1.810297   -1.984147
C       2.961903   -2.351358   -3.128221
O       3.254716   -2.761732   -1.784594
C       0.761599   -2.011812   -1.598731
H       1.201994    1.753527    0.305892
H      -0.381774    2.076833   -0.410890
H      -0.258309    1.642275    1.293803
H       0.472875   -0.642653    0.753599
H      -1.044402   -0.325071   -0.067574
H       0.153161    1.318673   -2.543367
H       0.466873   -0.117423   -3.520095
H      -1.054364    0.025006   -2.628717
H       2.681252    0.395731   -2.035586
H       2.673324   -0.359096   -0.423051
H       2.503544   -3.113053   -3.758650
H       3.733330   -1.751728   -3.611007
H       0.668539   -2.573793   -0.663957
H       0.096682   -2.453883   -2.345907
