19

C       0.018743    1.576824   -0.016326
C       0.058884    0.067084   -0.090745
C       0.657369   -0.748113   -1.220310
C      -0.067606   -1.838346   -1.950869
C       1.953742   -0.088290   -1.682016
O       2.466047   -0.012932   -0.326226
C       1.320721   -0.730447    0.165352
C       1.492691   -1.723670    1.164708
C       1.622965   -2.569659    2.011110
H       0.997094    2.007256   -0.240770
H      -0.714216    1.988906   -0.718302
H      -0.261837    1.901913    0.990534
H      -0.815320   -0.433422    0.321608
H      -0.674564   -1.432564   -2.769331
H       0.631566   -2.564560   -2.379565
H      -0.740657   -2.379018   -1.278362
H       2.578262   -0.754451   -2.288986
H       1.890698    0.896036   -2.160010
H       1.743758   -3.313113    2.759486
