19

O      -0.974139    1.637869   -0.833658
C      -0.403059    0.550021   -0.138331
C      -1.402807   -0.527229    0.302290
N      -2.004144   -1.297505   -0.792270
C      -3.377437   -0.994381   -1.162762
C      -3.636972    0.412678   -1.766258
O      -2.761755    0.683041   -2.849852
C      -3.824329   -2.000271   -2.144299
N      -4.163782   -2.727679   -2.975835
H      -1.252732    1.339923   -1.710772
H       0.397595    0.071020   -0.727704
H       0.071907    0.966661    0.757403
H      -0.873502   -1.217643    0.974993
H      -2.198536   -0.059136    0.892861
H      -1.414138   -1.291171   -1.615981
H      -4.009314   -1.096430   -0.270491
H      -4.690336    0.506349   -2.062201
H      -3.411700    1.166640   -1.009958
H      -2.983462    0.101049   -3.586288
