21

C       0.006301    1.630508   -0.028129
C       0.086223    0.100118   -0.044171
C       0.784811   -0.439475   -1.311298
C       2.281123   -0.575329   -0.882782
O       2.321318   -0.311730    0.522809
C       1.003283   -0.488006    1.049068
C       0.948903    0.127362    2.436056
C       2.841114   -1.891335   -1.198888
C       3.295160   -2.972224   -1.465094
H       1.004770    2.078756   -0.057320
H      -0.551034    1.993613   -0.897510
H      -0.501292    2.000113    0.867763
H      -0.922708   -0.316873    0.042586
H       0.389615   -1.418248   -1.590812
H       0.674124    0.224019   -2.172048
H       2.900139    0.192314   -1.361504
H       0.788198   -1.567343    1.130543
H       1.207380    1.188856    2.410422
H      -0.054433    0.020058    2.860287
H       1.656240   -0.378332    3.098805
H       3.705288   -3.924161   -1.696043
