18

C       0.046390    1.466592    0.024640
C       0.030101    0.012018    0.015603
C       0.004529   -1.191895    0.006337
C       0.024085   -2.635215   -0.024196
C      -0.646158   -3.397117    1.051759
O      -1.251707   -3.277707   -0.233720
C       1.168514   -3.249336   -0.789672
C       1.055751   -4.623313   -1.329778
N       1.034613   -3.461419   -2.239363
H       0.867850    1.856107   -0.586119
H      -0.888554    1.870979   -0.378274
H       0.168595    1.858497    1.040271
H      -0.271057   -4.387816    1.303397
H      -1.145922   -2.856074    1.852769
H       2.142864   -2.871011   -0.489756
H       1.942171   -5.246819   -1.401092
H       0.123196   -5.152523   -1.161529
H       0.068550   -3.279268   -2.506455
