12

O       0.054709   -0.035402   -0.002131
C       0.011735    1.172146    0.008700
C       1.234338    1.999716    0.001978
C       1.319761    3.352981    0.012835
C       2.749910    3.694765   -0.000331
O       3.303505    4.763530    0.002870
C       3.497957    2.304109   -0.020861
O       4.679318    2.097022   -0.035642
N       2.471913    1.370352   -0.017554
H      -0.938571    1.738478    0.024377
H       0.496226    4.049909    0.028238
H       2.575125    0.367373   -0.026982
