19

C      -0.280345    1.372259    0.122189
C       0.025057   -0.110477   -0.003143
N       1.242927   -0.449029   -0.812815
C       2.003409   -0.607403    0.338147
N       3.217622   -0.432091    0.647597
C       3.335841   -0.494151    2.117776
C       2.240154    0.354509    2.782453
O       0.901932   -0.052533    2.445666
C       0.789539   -0.737390    1.224571
H       0.598818    1.929962    0.457704
H      -0.606741    1.785127   -0.838041
H      -1.080724    1.532772    0.850659
H      -0.855610   -0.670938   -0.330284
H       1.563398    0.119254   -1.588276
H       3.283670   -1.529934    2.483058
H       4.312379   -0.098049    2.412568
H       2.306200    0.291313    3.873326
H       2.385261    1.403958    2.488075
H       0.468379   -1.769400    1.405890
