20

C      -0.127169    1.604073    0.004515
C       0.045652    0.094188    0.012671
O      -1.217035   -0.555424   -0.128397
C       1.064826   -0.590909   -0.949933
C       2.510635   -0.067865   -0.835925
N       2.756376   -0.820491    0.439668
C       2.106252   -0.101011    1.587030
C       0.705463   -0.626087    1.219988
C       1.438116   -1.564481    0.211653
H       0.815081    2.134268    0.165153
H      -0.532312    1.937576   -0.959277
H      -0.831054    1.903423    0.787318
H      -1.557601   -0.345884   -1.005791
H       0.679076   -0.882106   -1.929908
H       3.154883   -0.471895   -1.623625
H       2.678610    1.013449   -0.776208
H       2.465453   -0.526111    2.529581
H       2.275476    0.981319    1.611917
H       0.018480   -0.941146    2.005423
H       1.427207   -2.652476    0.192380
