17

O       0.078279    0.015953   -0.233873
C      -0.010943    1.194923   -0.046119
C      -1.360688    1.999908    0.000316
C      -0.873414    3.442326   -0.056819
C      -0.770673    4.595122    0.990865
C      -0.181393    3.634669    2.030609
C       0.487801    3.376862    0.647928
C       1.217204    2.154769    0.189915
O       0.629947    4.841556    0.487972
H      -1.996147    1.694248   -0.833558
H      -1.880495    1.715600    0.920965
H      -0.791687    3.821892   -1.077824
H      -1.388102    5.483690    1.123974
H       0.471020    4.099597    2.769688
H      -0.824998    2.865788    2.463024
H       1.927232    1.701328    0.883967
H       1.715402    2.307342   -0.774942
