17

C      -0.001165    1.526613   -0.120007
C       0.055588    0.008358    0.018795
N       0.683405   -0.623628   -1.146755
C       1.598136   -1.393696   -0.729571
C       2.500049   -2.250806   -1.545806
O       1.806852   -1.482275    0.626469
C       0.901561   -0.543097    1.232035
C       1.674378    0.466537    1.965696
N       2.262469    1.267584    2.554872
H       1.001507    1.950672   -0.218764
H      -0.573681    1.783421   -1.014284
H      -0.484884    1.984546    0.747739
H      -0.967036   -0.376283    0.109418
H       3.544491   -1.979974   -1.363645
H       2.381274   -3.301188   -1.262403
H       2.265438   -2.126646   -2.602129
H       0.278812   -1.083471    1.950235
