21

C      -0.029867    1.576465   -0.101173
C       1.513200    1.524415    0.067295
C       1.381102    0.071304    0.593984
C      -0.060670    0.027361    0.015790
C       2.455221   -1.000491    0.240003
C       2.849334   -1.380649    1.681227
C       1.490976   -1.577500    2.388906
C       1.495006   -0.055574    2.129741
O       2.944992   -0.066124    2.323105
H      -0.523112    2.063213    0.744644
H      -0.418601    2.015156   -1.022711
H       2.032620    1.561087   -0.895383
H       1.984908    2.246162    0.739618
H      -0.837646   -0.418089    0.645305
H      -0.093179   -0.460312   -0.963351
H       2.053592   -1.842761   -0.332172
H       3.299358   -0.574897   -0.308829
H       3.714646   -2.021857    1.848817
H       0.726935   -2.201925    1.918193
H       1.607723   -1.811694    3.447356
H       0.965535    0.665910    2.753950
