23

C      -0.221703    1.496044    0.018124
C       0.075484    0.001398    0.075105
C       1.006159   -0.611388   -0.983415
C       2.414552   -0.109790   -0.831024
C       1.919648   -1.176610    0.105435
C       1.022642   -0.583682    1.204650
C       1.642147    0.328237    2.232088
C       0.922737    0.613107    3.529001
C       2.162539   -0.245681    3.528291
H       0.690203    2.098347   -0.036407
H      -0.825498    1.734062   -0.864791
H      -0.779460    1.821071    0.902654
H      -0.872868   -0.544846    0.097785
H       0.673178   -1.086159   -1.899087
H       3.108569   -0.454976   -1.590974
H       2.621408    0.898179   -0.481607
H       2.395683   -2.149089    0.153406
H       0.491804   -1.384375    1.731325
H       2.219286    1.154912    1.828262
H       0.986042    1.611038    3.948834
H      -0.031247    0.123015    3.696356
H       2.040958   -1.311481    3.693896
H       3.074952    0.164840    3.946540
