17

O      -0.528607    1.496454    0.730767
C      -0.690281    0.119237    0.895151
C      -0.921135   -0.560691   -0.445904
O      -0.840545    0.081845   -1.475749
C      -1.235852   -2.002525   -0.462751
C      -1.287780   -2.968245   -1.652257
C      -2.448485   -3.737069   -0.929639
C      -2.341793   -2.734426    0.225957
O      -1.016142   -2.772856    0.730138
H      -0.511890    1.637908   -0.229451
H       0.194516   -0.350195    1.356408
H      -1.532529   -0.104624    1.567406
H      -1.611445   -2.472006   -2.567623
H      -0.363233   -3.518916   -1.833792
H      -3.395973   -3.668549   -1.467402
H      -2.259085   -4.775006   -0.648573
H      -3.113809   -2.356252    0.887183
