19

C       0.218558    1.232881   -0.143196
C       0.023400   -0.257665    0.132175
O       0.616861   -0.640887    1.373830
C      -1.438267   -0.660523    0.084970
C      -2.071560   -1.117058   -1.214278
C      -1.824431   -2.102823   -0.118062
O      -0.817910   -3.060453   -0.375244
C      -0.213153   -3.603287    0.711854
O       0.612177   -4.458570    0.612509
H       1.279173    1.491331   -0.087851
H      -0.159049    1.502900   -1.134074
H      -0.321763    1.838651    0.595401
H       0.571016   -0.838440   -0.616690
H       0.225750   -0.099454    2.068691
H      -2.078001   -0.097308    0.762827
H      -3.092942   -0.833498   -1.439640
H      -1.420431   -1.196459   -2.078518
H      -2.673110   -2.503462    0.429374
H      -0.570949   -3.171657    1.661808
