13

C      -0.087901    1.451318    0.073953
N      -0.015864    0.013262   -0.145382
C      -1.131648   -0.766436   -0.044958
C      -1.315763   -2.123429    0.059192
C      -2.724149   -2.248440    0.051577
N      -3.353494   -1.103124   -0.041324
O      -2.313931   -0.139419   -0.100045
H       0.885218    1.886728   -0.161571
H      -0.832008    1.885953   -0.596213
H      -0.358259    1.718326    1.104773
H       0.829655   -0.437748    0.165203
H      -0.568052   -2.895048    0.121501
H      -3.312788   -3.154148    0.112227
