16

C      -0.505575    1.361508    0.102657
C      -0.023215   -0.059142   -0.036499
N      -0.125615   -0.611509   -1.200830
C       0.319810   -1.891240   -1.480144
N       0.332450   -2.966250   -0.784145
C      -0.037202   -3.017819    0.567775
N      -0.715605   -3.965870    1.083973
C       0.526352   -1.978306    1.453480
C       0.539896   -0.664489    1.169544
H       0.328158    2.020938    0.372997
H      -0.943224    1.702115   -0.835369
H      -1.245024    1.441240    0.907573
H       0.655525   -1.985925   -2.514557
H      -1.001322   -4.616092    0.346779
H       0.883472   -2.326179    2.418752
H       0.896462    0.028321    1.927700
