18

O      -0.105394    0.239688    0.746561
C       0.374648    0.717932   -0.250899
C       1.460941    1.734569   -0.246738
N       2.235446    1.837470   -1.506474
C       1.384827    2.954632   -1.118587
C       0.203634    3.286611   -2.045661
C       0.396408    4.757968   -2.316344
C       1.356895    5.294119   -1.565415
C       1.995390    4.284692   -0.644009
H       0.033095    0.429161   -1.269513
H       1.971549    1.843735    0.707640
H       3.211689    2.027038   -1.290655
H       0.238430    2.669064   -2.949676
H      -0.766758    3.097811   -1.566812
H      -0.209281    5.297657   -3.035282
H       1.655126    6.336069   -1.575737
H       1.755625    4.493205    0.407541
H       3.091537    4.273596   -0.714381
