21

C       0.054620    1.550024   -0.178270
C      -0.011899    0.017481   -0.065820
C       0.584821   -0.466710    1.257450
O      -1.367347   -0.428604   -0.061266
C       0.768481   -0.624213   -1.230816
O       0.797259   -2.070870   -1.159995
C      -0.065548   -2.203132   -2.304523
C       0.082181   -0.700848   -2.619664
O      -1.084751    0.088225   -2.764847
H       1.086130    1.913241   -0.118073
H      -0.375147    1.892117   -1.123976
H      -0.514576    1.996741    0.641830
H       0.002529   -0.061547    2.089448
H       0.550736   -1.556981    1.300397
H       1.623802   -0.140806    1.365761
H      -1.760451   -0.130700   -0.891765
H       1.788425   -0.219099   -1.248394
H       0.329215   -2.912412   -3.041182
H      -1.087248   -2.482803   -2.019732
H       0.780298   -0.503080   -3.440904
H      -1.455965   -0.060792   -3.639982
