14

O       0.142849    1.322008    0.338279
C      -0.030116   -0.033463    0.027180
C      -1.500494   -0.441588   -0.160403
C      -1.448099   -1.368815   -1.365184
C      -0.259420   -1.353117   -1.999627
C       0.637853   -0.405259   -1.306925
O       1.681365    0.069279   -1.691049
C      -2.576418   -2.139236   -1.759203
N      -3.511598   -2.756541   -2.051881
H       0.994988    1.577587   -0.043544
H       0.423312   -0.683228    0.797108
H      -1.943160   -0.931202    0.710381
H      -2.104372    0.444164   -0.385200
H      -0.001481   -1.890521   -2.902058
