17

O      -0.052698    0.020185   -0.291438
C      -0.049903    1.193495   -0.076998
C      -1.120118    2.239803    0.286275
N      -0.009317    3.185075    0.584486
C       1.019445    2.294071   -0.008305
C       2.412435    2.199241    0.696544
C       3.069162    2.678766   -0.605207
N       2.710555    1.673808   -1.630132
C       1.749927    2.750426   -1.290600
H      -1.756360    2.499562   -0.570920
H      -1.759851    2.006240    1.143516
H      -0.091386    4.085445    0.124759
H       2.455510    2.927250    1.509059
H       2.721321    1.211604    1.045705
H       3.947469    3.301577   -0.719204
H       3.162633    1.947708   -2.502897
H       1.367666    3.427755   -2.046560
