16

C      -0.136268    1.435907   -0.155373
C       1.278453    0.954671    0.079161
C       0.138621   -0.027511    0.061257
N      -0.286893   -0.693756    1.261581
C      -0.737982   -1.995436    1.331220
C      -1.033897   -2.218920    2.650091
N      -0.778011   -1.095500    3.397439
C      -0.334214   -0.205085    2.537021
H      -0.627583    1.973737    0.647526
H      -0.421465    1.758148   -1.150473
H       1.972653    0.943888   -0.753529
H       1.733680    1.170277    1.039155
H       0.056597   -0.685683   -0.794942
H      -0.800249   -2.614171    0.451179
H      -1.414723   -3.122770    3.100646
H      -0.034007    0.802824    2.779863
