22

C      -0.013339    1.568806   -0.093829
C       0.099257    0.047307   -0.008476
C       0.801863   -0.615133   -1.219600
C       1.233519   -1.993834   -0.718187
C       2.554477   -2.073275   -0.000599
C       1.279192   -1.929244    0.796305
C       0.816947   -0.535161    1.254529
C       1.935321    0.342579    1.834270
H       0.970428    2.045846   -0.155434
H      -0.577413    1.865438   -0.984809
H      -0.532215    1.984870    0.776805
H      -0.918814   -0.363952    0.015362
H       0.130991   -0.683191   -2.081441
H       1.666074   -0.019846   -1.543292
H       0.865790   -2.875662   -1.230930
H       3.054388   -3.035760    0.040864
H       3.233992   -1.230775   -0.081846
H       0.973678   -2.782412    1.392602
H       0.071859   -0.665717    2.048042
H       2.695804    0.598195    1.089624
H       1.537079    1.282022    2.230144
H       2.441637   -0.176988    2.654081
