18

C       0.014923    1.560998    0.021807
C       0.057049    0.049027    0.016991
N      -1.168439   -0.533182   -0.480546
C       1.333734   -0.710350   -0.222818
N       2.495903    0.019707    0.302024
C       1.954370   -0.097558    1.696139
C       0.659738   -0.747612    1.179661
C      -0.043243   -1.785539    1.849020
N      -0.611988   -2.644100    2.381325
H       0.987657    1.990281    0.263840
H      -0.264718    1.917155   -0.976367
H      -0.739694    1.919572    0.726655
H      -1.237163   -0.400666   -1.485176
H      -1.229021   -1.528857   -0.293970
H       1.415907   -1.499771   -0.962155
H       3.347077   -0.522551    0.204794
H       2.523806   -0.793485    2.316988
H       1.853984    0.858083    2.219541
