17

C      -0.022640    1.523830    0.013022
C       1.400555    2.113213    0.041268
N       2.227358    1.571047    1.129385
C       1.912483    0.301211    1.517518
C       0.952355   -0.516466    0.985081
C      -0.006026   -0.019758   -0.054950
C       1.121173   -1.702786    1.740374
N       2.073012   -1.619246    2.640245
O       2.597267   -0.305670    2.489077
H      -0.556174    1.837924    0.917588
H      -0.558730    1.941339   -0.844880
H       1.898251    1.905314   -0.915389
H       1.361950    3.199625    0.152457
H       2.531011    2.204449    1.852536
H      -1.016597   -0.407807    0.112994
H       0.283695   -0.344605   -1.063706
H       0.566546   -2.629788    1.671545
