19

C      -0.030941    1.488280   -0.025516
C       1.354232    2.071781    0.027826
C       2.390067    1.237597    0.107338
C       2.132453   -0.242548    0.140181
C       1.064941   -0.725402   -0.923542
C       0.900481   -2.190494   -0.532933
C       0.831910   -2.148877    0.802731
C       0.959656   -0.661788    1.116360
C       0.004511   -0.040406    0.024001
H      -0.640081    1.871724    0.806483
H      -0.549999    1.817327   -0.937992
H       1.475178    3.150660    0.000418
H       3.414493    1.595770    0.149062
H       3.042315   -0.842439    0.205867
H       1.157720   -0.454856   -1.975976
H       0.861478   -3.034058   -1.207513
H       0.721345   -2.949043    1.520848
H       0.944538   -0.326059    2.153894
H      -1.001170   -0.468465   -0.014574
