13

N      -0.168790    1.202499   -0.041443
C      -0.098757   -0.125051    0.237217
O       0.558679   -0.635717    1.109026
O      -0.865478   -0.813742   -0.670565
C      -0.941760   -2.213894   -0.470337
C      -2.286480   -2.566633    0.148988
F      -3.306103   -2.228278   -0.650131
F      -2.350699   -3.888581    0.361977
F      -2.464595   -1.943116    1.318510
H       0.221275    1.830956    0.638689
H      -0.884335    1.541211   -0.661111
H      -0.866082   -2.702713   -1.443976
H      -0.145043   -2.550922    0.194955
