19

O       0.043777    1.339970   -0.229118
C       0.044699   -0.061201   -0.057143
C      -1.373227   -0.585512    0.174109
O      -2.185786   -0.127316   -0.942495
C      -2.981811   -1.211901   -1.378090
C      -2.757446   -2.004270   -2.721482
C      -2.771677   -3.334235   -1.870734
C      -2.447646   -2.429015   -0.702009
C      -1.477102   -2.102700    0.142771
H      -0.633323    1.519954   -0.893013
H       0.477298   -0.579018   -0.928801
H       0.672448   -0.280703    0.813779
H      -1.767607   -0.126779    1.094397
H      -4.047226   -0.986261   -1.232565
H      -3.519304   -1.900287   -3.497326
H      -1.765356   -1.804415   -3.129854
H      -3.774809   -3.768804   -1.829185
H      -2.052367   -4.115983   -2.118881
H      -0.748185   -2.747262    0.618164
