19

C      -0.084229    1.551664    0.015295
C       0.015180    0.018222    0.003129
C       0.838576   -0.509189   -1.173753
O       2.196602   -0.063311   -1.184319
C       1.899228   -1.378512   -0.645728
C       1.746033   -1.387423    0.836745
C       0.735662   -0.591754    1.208506
C       0.329402   -0.285093    2.619761
O       1.184811   -0.841601    3.600321
H       0.916902    1.990464    0.031720
H      -0.598876    1.910058   -0.881851
H      -0.641705    1.915743    0.883178
H      -1.000670   -0.399351   -0.060650
H       0.381072   -0.636830   -2.151847
H       2.338306   -2.205832   -1.194380
H       2.380111   -1.950649    1.508990
H       0.227362    0.805486    2.749281
H      -0.666322   -0.704721    2.818934
H       2.061101   -0.466569    3.461302
