18

O       0.135435    1.429140   -0.161472
C       0.060272    0.025333    0.012263
C      -1.371607   -0.504068   -0.072873
C      -1.441244   -2.036045    0.050937
C      -2.846956   -2.541855    0.086222
N      -3.782370   -2.211069    0.962911
C      -4.861776   -2.931334    0.551455
N      -4.666142   -3.685410   -0.516726
N      -3.366651   -3.419634   -0.799787
H      -0.361635    1.841218    0.552603
H       0.670777   -0.403603   -0.790930
H       0.518287   -0.288338    0.965264
H      -1.979060   -0.064758    0.727410
H      -1.815244   -0.181680   -1.021476
H      -0.901729   -2.509132   -0.778374
H      -0.935829   -2.349720    0.972810
H      -5.817496   -2.899519    1.053099
H      -2.925723   -3.865218   -1.587847
