15

N       0.028257    1.242564   -0.393493
C       0.056297    0.033640    0.205177
O       1.015629   -0.473326    0.747892
C      -1.276307   -0.747871    0.105187
O      -2.278284    0.028329   -0.515331
C      -1.032583   -2.033548   -0.729534
O      -2.271145   -2.666519   -0.990327
C      -1.716152   -1.150925    1.461469
N      -2.122870   -1.515984    2.479591
H       0.854384    1.816947   -0.366252
H      -0.828865    1.589764   -0.790077
H      -2.900062   -0.607033   -0.902937
H      -0.625901   -1.733636   -1.699376
H      -0.311470   -2.678721   -0.220047
H      -2.555152   -3.119366   -0.186689
