17

C      -0.144514    1.554080   -0.036029
C       0.014086    0.038392   -0.011079
O      -1.266768   -0.552049   -0.163378
C       1.208100   -0.655237   -0.767091
C       2.139635   -0.148800    0.372395
C       0.859507   -0.670176    1.089140
C       0.944677   -1.901825    0.132107
H       0.787599    2.100571    0.108663
H      -0.558110    1.870478   -1.002754
H      -0.850730    1.862120    0.741217
H      -1.697797   -0.134582   -0.915828
H       1.410465   -0.641618   -1.840438
H       3.037705   -0.747927    0.538305
H       2.372336    0.914944    0.426555
H       0.655527   -0.676593    2.161414
H       0.025926   -2.455487   -0.044022
H       1.802699   -2.560197    0.287805
