18

C      -0.186911    1.326528   -0.101533
O      -0.113221   -0.080460   -0.130592
C       0.818503   -0.562854   -1.076450
C       0.778881   -2.077105   -1.007661
N      -0.491521   -2.672889   -1.455625
C       0.007940   -3.219566   -2.607105
O      -0.482117   -3.731238   -3.580025
C       1.454421   -2.835840   -2.196245
O       2.155413   -2.044006   -3.120848
H       0.779266    1.778536    0.171400
H      -0.495703    1.738758   -1.074770
H      -0.930323    1.599498    0.651163
H       0.565324   -0.221110   -2.090802
H       1.836517   -0.205019   -0.851366
H       1.078820   -2.415519   -0.011183
H      -1.437808   -2.468851   -1.167349
H       2.052454   -3.693812   -1.863429
H       1.878818   -2.325396   -4.001073
