16

C       0.329375    1.336825    0.188023
N      -0.295856    0.124310   -0.341657
C       0.487251   -0.513653   -1.348219
C       1.600993   -1.477339   -1.027222
O       1.815605   -1.701237    0.324140
C       0.288435   -1.995820   -1.651832
C      -0.569585   -2.787331   -0.822983
N      -1.235595   -3.436327   -0.133234
H       1.322151    1.169961    0.632646
H       0.435131    2.071985   -0.617619
H      -0.325925    1.770227    0.948125
H      -0.480767   -0.524989    0.415207
H       0.630793    0.105677   -2.230338
H       2.482413   -1.518214   -1.666664
H       1.916191   -2.647324    0.479901
H       0.311473   -2.295901   -2.693860
