17

C       0.028584    1.400107   -0.085236
N       0.085846   -0.035911    0.010539
N      -0.006594   -0.804009   -1.119907
C       0.037403   -2.056957   -0.682407
N       0.066099   -3.153112   -1.550304
C       0.131749   -2.110074    0.726256
O       0.147028   -3.211610    1.553905
C       0.146724   -0.789419    1.136912
N       0.287675   -0.240967    2.416532
H       0.573225    1.836445    0.755988
H       0.502224    1.700587   -1.021241
H      -1.002587    1.777615   -0.079235
H      -0.172112   -2.871792   -2.493922
H      -0.553588   -3.894778   -1.245893
H       0.938142   -3.726982    1.358673
H       0.401650   -0.990619    3.089924
H      -0.509519    0.320588    2.698457
