21

C      -0.305846    1.535180   -0.156408
C       0.049610    0.061087   -0.053180
O       1.196441   -0.297811    0.102977
C      -1.128591   -0.898445   -0.160161
C      -0.830371   -2.402845   -0.062683
C       0.089251   -2.891537   -1.204712
C      -0.220780   -2.790478    1.303633
C      -2.138533   -3.174353   -0.193379
O      -3.231768   -2.693842   -0.348167
H       0.597976    2.138918   -0.068834
H      -0.798644    1.744142   -1.112455
H      -1.014465    1.814244    0.631320
H      -1.859489   -0.615510    0.608786
H      -1.647817   -0.684516   -1.103653
H       1.077119   -2.440286   -1.102747
H       0.200986   -3.980855   -1.174144
H      -0.318781   -2.623122   -2.185130
H      -0.852227   -2.449220    2.131025
H      -0.115658   -3.877648    1.387563
H       0.766625   -2.339097    1.409444
H      -2.003397   -4.280500   -0.131898
