17

C       0.114679    1.510755    0.188735
C       0.040306    0.059061    0.128577
C      -0.023659   -1.143445    0.088068
C      -0.057177   -2.579090    0.021904
O      -0.733571   -3.289108    1.080238
C      -1.302187   -3.341415   -0.219713
C      -2.638631   -2.649934   -0.423947
C      -3.763506   -3.479546   -0.007335
C      -4.677510   -4.182058    0.331031
H       1.154153    1.855087    0.163333
H      -0.411506    1.972763   -0.653715
H      -0.338483    1.888049    1.111859
H       0.877540   -3.048398   -0.285076
H      -1.208429   -4.310007   -0.713141
H      -2.631978   -1.704093    0.127321
H      -2.739993   -2.396036   -1.487813
H      -5.489480   -4.793403    0.637894
