18

O      -0.161965   -0.019219    0.302386
C      -0.052692    1.169215    0.116671
C      -1.205148    2.178864   -0.001249
C      -0.536129    3.565984   -0.028082
C       0.940844    3.246006   -0.139372
C       1.205769    1.940395   -0.043575
N      -0.981472    4.377758   -1.160234
C      -2.163498    5.205203   -0.931049
C      -0.812988    5.823061   -1.023250
H      -1.728285    2.003082   -0.946518
H      -1.923816    2.039516    0.809425
H      -0.713780    4.098145    0.926620
H       1.673627    4.034783   -0.272947
H       2.178284    1.465282   -0.067551
H      -2.860418    5.271247   -1.760915
H      -2.627037    5.170700    0.053727
H      -0.379100    6.203552   -0.099413
H      -0.504392    6.349681   -1.921267
