14

C      -0.059953    1.440672    0.019923
N       0.038835   -0.005851   -0.033773
C       0.177196   -0.784822   -1.142536
C       0.160368   -2.089897   -0.709302
C       0.004196   -1.995964    0.694768
C      -0.064530   -3.118951    1.641118
O      -0.190999   -3.030632    2.838505
N      -0.070910   -0.715881    1.089301
H       0.465245    1.870667   -0.834771
H      -1.106464    1.760012    0.000448
H       0.400176    1.783708    0.946641
H       0.276705   -0.350140   -2.124430
H       0.256573   -2.981862   -1.307389
H       0.012472   -4.111145    1.139753
