21

C      -0.366677    1.459714    0.219316
C       0.179025    0.052881   -0.058868
C       0.956274   -0.518564    1.099655
C       2.276731    0.082620    1.560637
C       2.798684   -0.908114    2.635326
O       2.356478   -0.555789    3.933643
C       2.239798   -2.287730    2.193403
C       0.943175   -1.935812    1.496880
O       0.156234   -0.967895    2.226824
H       0.440550    2.177929    0.394174
H      -0.956448    1.821813   -0.627632
H      -1.010222    1.453415    1.104086
H      -0.650828   -0.624372   -0.288153
H       0.830006    0.070892   -0.942427
H       2.961570    0.144278    0.705365
H       2.176899    1.084667    1.986435
H       3.890097   -0.910446    2.685254
H       1.390635   -0.554973    3.882302
H       2.909483   -2.788098    1.482827
H       2.109513   -2.944295    3.058120
H       0.361789   -2.685052    0.964613
