18

C      -1.554255    0.292970    0.615850
C      -0.085032    0.232636    0.170912
N       0.724680   -0.346272    1.243349
C       2.170430   -0.418130    1.005268
C       2.908317    0.930317    0.865083
C       2.768255   -1.201953    2.098451
N       3.253165   -1.783115    2.970862
C       0.052149   -0.589576   -1.044912
N       0.169102   -1.211475   -2.011503
H      -1.646596    0.948892    1.486897
H      -2.181040    0.693932   -0.183391
H      -1.907751   -0.704154    0.885545
H       0.230653    1.251258   -0.114363
H       0.534872    0.149594    2.108350
H       2.312285   -0.994909    0.082587
H       2.783300    1.535490    1.767934
H       3.977605    0.766440    0.707900
H       2.523646    1.488870    0.008021
