19

O       0.059124    1.383331   -0.167348
C       0.015057    0.002353    0.063295
C      -1.403917   -0.495059    0.117951
N      -2.392107    0.313182    0.034914
C      -3.614915   -0.494452    0.142673
C      -3.138365   -1.958385    0.103309
C      -3.918533   -3.107278    0.659908
C      -3.695719   -2.989168   -0.838958
N      -1.702074   -1.832718    0.324020
H      -0.868159    1.671319   -0.162800
H       0.556798   -0.537285   -0.731643
H       0.513168   -0.259921    1.011225
H      -4.122912   -0.264806    1.088845
H      -4.311983   -0.254915   -0.667836
H      -3.374828   -3.881499    1.191104
H      -4.910869   -2.908713    1.052942
H      -4.533203   -2.704529   -1.468475
H      -3.009447   -3.691643   -1.303167
H      -1.094333   -2.523952   -0.094173
