20

O      -0.595115    1.034265   -1.034892
C       0.281085    0.868964   -0.226641
C       1.369940    1.891949    0.078241
C       0.967667    2.670860    1.320062
C       1.327661    4.131142    1.458711
C      -0.104758    3.725502    1.227789
N       2.618288    1.173591    0.313389
C       3.418193    0.845475   -0.866463
C       3.855215    1.909751    0.077888
H       0.349404   -0.055182    0.390047
H       1.420164    2.581380   -0.782619
H       0.997489    2.075348    2.227601
H       1.613174    4.493606    2.439883
H       1.857254    4.604242    0.638537
H      -0.538168    3.914957    0.251607
H      -0.807378    3.811370    2.048721
H       3.891878   -0.131594   -0.856626
H       3.047906    1.164197   -1.839397
H       3.779908    2.939605   -0.264613
H       4.656316    1.724466    0.787458
