18

O       0.086313    1.397503   -0.156532
C      -0.033232    0.002436   -0.097638
C      -0.426027   -0.739054    1.170622
C      -1.353041   -0.677094   -0.010605
C      -2.768956   -0.119338   -0.067931
C      -2.938084    0.124260   -1.596582
C      -2.794403   -1.392198   -1.733933
C      -3.183781   -1.622897   -0.324638
N      -1.775608   -1.899858   -0.735158
H      -0.573446    1.787878    0.425296
H       0.730159   -0.457073   -0.717027
H       0.074048   -1.677633    1.387220
H      -0.687657   -0.152331    2.047853
H      -3.174203    0.570655    0.670223
H      -3.953625    0.437534   -1.852580
H      -2.204251    0.777358   -2.078417
H      -2.953782   -2.017631   -2.602227
H      -3.826545   -2.335536    0.174431
