18

O       0.188479    1.340814   -0.250381
C       0.222884   -0.062206   -0.036621
C      -1.176018   -0.653116    0.074723
C      -2.124335   -0.625522   -1.152038
N      -2.395164   -2.114548   -1.077591
C      -1.109416   -2.763355   -1.277808
C      -1.353498   -2.168834    0.067307
C      -1.595344   -2.999216    1.260299
O      -1.375245   -2.627421    2.388477
H      -0.168296    1.752223    0.543564
H       0.750438   -0.475220   -0.902688
H       0.807206   -0.327393    0.857841
H      -1.670567   -0.239123    0.959209
H      -3.051436   -0.072911   -0.999269
H      -1.674158   -0.321419   -2.102332
H      -1.181288   -3.844638   -1.357033
H      -0.368667   -2.309219   -1.932522
H      -2.012510   -4.007814    1.043007
