20

C      -0.056882    1.561564    0.093832
C      -0.034839    0.064908   -0.009070
C      -0.830192   -0.803992    0.871096
N       0.657798   -0.802768    1.062660
C       1.145751   -1.642748   -0.017572
O       1.826606   -2.619615    0.039078
C       0.602791   -0.755684   -1.159937
C      -0.314688   -1.403862   -2.195856
C       1.774787   -0.038178   -1.844393
H       0.905540    2.002990   -0.178544
H      -0.820670    1.980660   -0.571441
H      -0.294728    1.871271    1.115306
H      -1.346818   -0.344015    1.707800
H      -1.301002   -1.711440    0.502955
H      -1.187660   -1.880616   -1.743009
H      -0.672034   -0.658093   -2.914570
H       0.232737   -2.171205   -2.752202
H       2.342354   -0.751680   -2.448217
H       1.409160    0.754391   -2.506284
H       2.462836    0.408148   -1.120710
