16

C      -0.021313    1.646991   -0.362096
N      -0.166216    0.242427   -0.046371
C       0.493528   -0.576955   -0.737487
N       0.469552   -1.962450   -0.566065
C      -0.247278   -2.690176    0.353612
O      -0.998230   -2.294642    1.196745
O       0.065620   -4.021586    0.123747
C      -0.536900   -4.951791    0.929144
N      -0.264047   -6.163962    0.734068
H       0.670871    1.849430   -1.196315
H      -1.001942    2.065925   -0.613887
H       0.335056    2.183816    0.524099
H       1.167961   -0.296060   -1.559675
H       1.044839   -2.510524   -1.186036
H      -1.202690   -4.500878    1.665512
H      -0.777299   -6.741912    1.397793
