23

C      -0.089589    1.543165    0.291000
C       0.052886    0.023666    0.060906
C       0.703344   -0.278121   -1.292436
C       0.875028   -0.558718    1.215114
O       2.082789   -0.617850    1.168194
C       0.088431   -1.057368    2.424120
C       0.934532   -1.302423    3.649712
C       1.101568   -0.220868    4.685291
C       0.288053   -1.452769    5.002335
H       0.893398    2.023929    0.267986
H      -0.707804    1.989847   -0.493591
H      -0.555883    1.771698    1.254965
H      -0.950304   -0.420470    0.098865
H       1.729059    0.098393   -1.309847
H       0.742377   -1.354727   -1.484329
H       0.141108    0.192789   -2.104668
H      -0.728626   -0.355735    2.638270
H      -0.412672   -1.983784    2.099411
H       1.811895   -1.910337    3.457368
H       2.070926   -0.104088    5.156279
H       0.567487    0.712482    4.536642
H      -0.790141   -1.344376    5.067422
H       0.700004   -2.180893    5.692384
