15

N       0.005816    1.345285    0.009719
C       1.165476    2.043691    0.002128
N       2.355301    1.500884   -0.012661
C       2.429686    0.140527   -0.020965
C       1.324017   -0.673301   -0.014557
C       1.076455   -2.074338   -0.019921
C      -0.296335   -2.243758   -0.007263
C      -0.979625   -0.980150    0.006540
C       0.005464   -0.025297    0.002097
H      -0.869903    1.850130    0.021194
H       1.063384    3.124187    0.009155
H       3.436696   -0.269239   -0.033217
H       1.826978   -2.850501   -0.031679
H      -0.804906   -3.200174   -0.007554
H      -2.049174   -0.829895    0.017966
