21

C       0.614695   -0.610309    1.395271
C       0.100067    0.034805    0.104774
C       0.827641   -0.428045   -1.173860
O       2.214218   -0.180538   -1.010448
C       0.582128   -1.901257   -1.506917
O       1.485034   -2.220621   -2.552759
C       1.418651   -3.568647   -2.962589
C       0.300440    0.445076   -2.325237
O      -0.736670    0.259438   -2.905647
H       0.393587   -1.681150    1.437719
H       1.696056   -0.482474    1.480773
H       0.141234   -0.143768    2.264174
H      -0.971917   -0.146481   -0.030208
H       0.225375    1.122423    0.176033
H       2.660317   -0.756179   -1.646224
H       0.773615   -2.541204   -0.634015
H      -0.458483   -2.036011   -1.832137
H       1.648636   -4.254842   -2.133350
H       0.423096   -3.819627   -3.356067
H       2.158708   -3.705830   -3.754200
H       0.971695    1.303293   -2.555384
