19

C      -0.047560    1.455174    0.118354
C      -0.088684   -0.053366   -0.050108
O       0.732231   -0.402055   -1.150481
C       0.766061   -1.769807   -1.401004
C       1.633815   -2.067222   -2.620770
O       2.071468   -1.214474   -3.341621
C       1.901519   -3.572450   -2.825431
C       2.365273   -3.922400   -4.155937
C       2.742985   -4.215593   -5.256994
H       0.976232    1.791805    0.302698
H      -0.413475    1.950584   -0.784974
H      -0.673082    1.760082    0.962500
H       0.268286   -0.557710    0.863976
H      -1.121939   -0.398070   -0.225378
H       1.155454   -2.342861   -0.538037
H      -0.242845   -2.179202   -1.603730
H       2.649426   -3.860972   -2.071907
H       0.996182   -4.136876   -2.565200
H       3.077887   -4.467101   -6.232653
