21

C      -0.277345    1.408802    0.006069
C      -0.002063   -0.067608   -0.015232
C       0.797334   -0.786443   -1.132770
C      -0.134545   -1.923705   -0.662119
C      -0.663389   -3.028540   -1.539153
O      -1.758234   -3.685028   -0.922199
C       0.378737   -2.244383    0.760494
C       0.485119   -0.775946    1.272502
O      -1.158442   -0.904445   -0.377447
H       0.638962    1.962718    0.235422
H      -0.657496    1.751207   -0.960292
H      -1.020199    1.649113    0.773970
H       0.529971   -0.418133   -2.124819
H       1.878776   -0.904262   -1.024475
H      -0.943556   -2.613829   -2.519697
H       0.111008   -3.786127   -1.703215
H      -2.383883   -2.992973   -0.676926
H      -0.349844   -2.843234    1.308247
H       1.334473   -2.775981    0.752941
H       1.499457   -0.481996    1.557207
H      -0.184370   -0.568220    2.110684
