17

C      -0.106123    1.543042    0.000926
N       0.033286    0.097657    0.018945
C       1.061008   -0.533953   -0.830451
C       2.487100   -0.100364   -0.341910
C       2.695665   -1.360053    0.464001
C       2.231866   -0.106230    1.165876
C       0.724975   -0.541618    1.154516
C       1.195984   -1.696946    0.208851
H       0.845730    2.076114    0.164115
H      -0.515102    1.858650   -0.964842
H      -0.810574    1.851909    0.780625
H       0.860204   -0.637353   -1.896869
H       3.222714    0.536809   -0.813550
H       3.574078   -1.971804    0.610313
H       2.770458    0.526406    1.858156
H       0.184484   -0.652768    2.094610
H       0.712346   -2.665238    0.123239
