18

C      -0.002842    1.437640   -0.286428
O       0.047653    0.058568    0.064218
C      -1.114814   -0.608504   -0.026660
N      -1.176303   -1.829889    0.279629
C      -2.430231   -2.482192    0.155056
C      -2.427219   -3.936770   -0.187054
C      -2.817354   -3.517004    1.222099
C      -1.889511   -3.810396    2.340217
O      -2.254717   -4.066877    3.462648
H       1.012896    1.818186   -0.176536
H      -0.328030    1.575600   -1.324589
H      -0.670047    1.995917    0.380968
H      -1.966259   -0.008461   -0.383197
H      -3.269652   -1.888368   -0.214742
H      -3.208678   -4.331406   -0.825586
H      -1.452971   -4.398018   -0.306318
H      -3.866129   -3.561992    1.494350
H      -0.813355   -3.782870    2.070432
