21

C       0.259043    1.801433   -0.543374
O      -0.359937    0.547198   -0.712923
C       0.519447   -0.449833   -1.158603
C       1.546911   -1.059609   -0.160133
C       1.134210   -2.483895   -0.641502
C       0.618338   -3.450655    0.441182
C      -0.836370   -3.055979    0.571964
C      -1.227400   -2.194178   -0.367623
C      -0.122757   -1.847747   -1.331313
H       1.052293    1.771355    0.218819
H       0.701339    2.166925   -1.484194
H      -0.511532    2.505283   -0.219304
H       1.018908   -0.125916   -2.086347
H       2.594465   -0.775317   -0.283257
H       1.245122   -0.878488    0.875466
H       1.863082   -2.932537   -1.317774
H       0.721067   -4.504906    0.147967
H       1.170835   -3.339054    1.383652
H      -1.477098   -3.453655    1.352236
H      -2.225568   -1.782701   -0.461076
H      -0.368661   -2.121477   -2.362915
