16

O      -0.107190    1.439837   -0.112449
C      -0.023377    0.039198    0.034143
C       0.260252   -0.550542    1.460333
C      -1.091369   -1.286095    1.394369
C      -2.191056   -0.265646    1.206128
C      -1.379631   -0.650566    0.008311
C      -1.325084   -2.617065    1.836973
C      -1.499284   -3.745255    2.220097
H       0.783535    1.801855   -0.066804
H       0.659167   -0.396352   -0.706890
H       1.119450   -1.223179    1.479829
H       0.350022    0.184086    2.266352
H      -3.197161   -0.668840    1.228794
H      -2.082683    0.722692    1.643259
H      -1.826453   -1.120684   -0.858550
H      -1.659536   -4.738844    2.557433
