15

C      -0.107436    1.684756    0.084825
C      -0.063721    0.183275    0.003097
O       0.967312   -0.457686   -0.036511
C      -1.396969   -0.548526   -0.030609
N      -2.483641    0.112889    0.010456
N      -1.207735   -1.923668   -0.106625
C      -2.175005   -2.895804   -0.154574
N      -3.424006   -2.636832   -0.134715
H       0.909303    2.077367    0.105663
H      -0.660679    2.088627   -0.767831
H      -0.660905    1.994401    0.975768
H      -3.285257   -0.522752   -0.020710
H      -0.232265   -2.192307   -0.125329
H      -1.740555   -3.900373   -0.210998
H      -3.967954   -3.494692   -0.178563
