22

C       0.147227    1.560366    0.195722
C      -0.088776    0.051043    0.067897
C       0.630557   -0.561914   -1.129465
C       2.172385   -0.669883   -1.203904
C       2.636183   -1.495391    0.011002
C       1.878645   -2.619606   -0.668485
N       2.022545   -1.988651   -2.032517
C       0.672364   -2.067471   -1.368497
C      -0.425781   -2.935489   -1.902522
H       1.210465    1.786492    0.332080
H      -0.189337    2.090770   -0.702045
H      -0.392709    1.977449    1.051132
H       0.221292   -0.451752    0.991190
H      -1.164602   -0.143962   -0.032590
H       0.280901   -0.086099   -2.055468
H       2.779488    0.140631   -1.602685
H       3.713539   -1.676662   -0.031397
H       2.356854   -1.173698    1.019244
H       2.011681   -3.687898   -0.533149
H      -1.196212   -3.110194   -1.142776
H      -0.903704   -2.471371   -2.771854
H      -0.033044   -3.908194   -2.214806
