21

C       0.044312    1.503165   -0.011972
C      -0.036577   -0.024453   -0.002594
C      -1.469789   -0.578338    0.111770
C      -1.272217   -1.867891    0.914495
O      -0.231808   -1.574290    1.841581
C       0.678023   -0.666026    1.230361
C       1.927342   -1.352671    0.627969
O       2.080107   -0.830927   -0.684672
C       0.766616   -0.627902   -1.179254
H       1.085619    1.833479   -0.085747
H      -0.501440    1.922371   -0.864519
H      -0.383787    1.927402    0.902397
H      -2.100930    0.120584    0.670131
H      -1.938150   -0.751626   -0.862124
H      -2.152891   -2.176402    1.484432
H      -0.986206   -2.703250    0.255445
H       0.951622    0.071907    1.990226
H       2.850419   -1.150978    1.176877
H       1.757884   -2.441265    0.613909
H       0.324017   -1.583396   -1.508819
H       0.832083    0.036053   -2.045680
