19

C       0.070663    1.553917   -0.412715
C      -0.037180    0.085779   -0.061253
C       1.134262   -0.787049   -0.224625
O       0.743800   -0.323116    1.073722
C      -1.434739   -0.494426   -0.110695
C      -1.652777   -1.942099    0.426982
C      -2.866371   -1.409852    1.199704
O      -3.816614   -1.925728    1.710778
C      -2.454040    0.048209    0.949036
H       1.102074    1.899758   -0.312529
H      -0.259421    1.730450   -1.442116
H      -0.558029    2.158769    0.248910
H       1.001589   -1.854041   -0.396519
H       2.066308   -0.370958   -0.604613
H      -1.835809   -0.381458   -1.122557
H      -1.831260   -2.753042   -0.282214
H      -0.856116   -2.227383    1.123009
H      -1.949583    0.467396    1.826974
H      -3.240890    0.733431    0.626404
