19

C      -0.044895    1.518906   -0.003599
C      -0.031642    0.004629    0.053465
C      -1.404122   -0.694928   -0.022397
C      -1.117862   -2.171754    0.350973
C       0.272451   -2.129269    0.986368
C       1.453705   -1.634961    0.137117
C       0.740659   -0.738928    1.191906
C       0.977210   -0.686210   -0.906865
O       1.379160   -0.385540   -1.999263
H       0.961088    1.933206    0.114007
H      -0.427513    1.857693   -0.971067
H      -0.683658    1.937955    0.781664
H      -2.086209   -0.234096    0.701915
H      -1.856062   -0.587991   -1.012944
H      -1.854101   -2.557704    1.062382
H      -1.136766   -2.830186   -0.523091
H       0.555732   -2.895493    1.700471
H       2.418506   -2.126082    0.181195
H       1.181039   -0.302302    2.077325
