20

C      -0.393074    1.535245    0.187131
C       0.114886    0.126150    0.006915
C      -0.637730   -1.049030    0.582659
C       0.724731   -0.693936    1.127847
C       1.900624   -1.473417    0.565192
N       1.716203   -1.359427   -0.882042
C       0.934269   -0.180794   -1.243123
C       2.125408   -2.319701   -1.748494
O       2.753970   -3.313165   -1.443082
H       0.423865    2.264239    0.131958
H      -1.125651    1.798109   -0.585132
H      -0.882891    1.654705    1.158008
H      -1.495998   -0.823919    1.206435
H      -0.737886   -1.955180   -0.007764
H       0.807164   -0.294468    2.131991
H       2.852696   -1.025892    0.882682
H       1.922992   -2.532048    0.836337
H       0.324259   -0.386637   -2.129760
H       1.581768    0.678933   -1.474593
H       1.814465   -2.097653   -2.789475
