15

N      -0.119649    1.319466    0.083965
C      -0.053894    0.048429    0.000513
N       1.064508   -0.796541   -0.134341
C       0.745698   -2.231694   -0.017015
C      -0.752354   -2.196825   -0.001468
C      -1.158044   -0.903169    0.008884
O      -2.500809   -0.792530    0.010003
C      -2.961919   -2.078824   -0.000027
C      -1.939758   -2.986970   -0.011829
H       0.810434    1.740044    0.053035
H       1.949148   -0.467118    0.218076
H       1.155935   -2.795789   -0.864746
H       1.166247   -2.666829    0.900663
H      -4.034557   -2.182982    0.006445
H      -2.047518   -4.060200   -0.020850
