15

O       0.096386    0.692925   -1.406296
C       0.031089    1.338362   -0.392856
C      -1.248467    2.063222    0.014369
O      -1.223895    2.550587    1.334284
C      -0.598777    3.800674    1.494883
C       0.897456    3.790836    1.394818
C       1.688493    2.775152    1.032373
C       1.281587    1.442966    0.526363
O       1.970754    0.460780    0.680529
H      -1.453412    2.861847   -0.716879
H      -2.066609    1.339430   -0.053681
H      -1.011674    4.539217    0.783234
H      -0.875611    4.151670    2.496813
H       1.365036    4.718680    1.721135
H       2.766670    2.883297    1.114660
