20

C       0.197601    1.130401   -0.292595
O       0.176363   -0.239428    0.074182
C       0.626184   -0.488613    1.368754
C       0.539456   -1.992813    1.634176
C       1.895630   -2.485855    1.111724
C       2.795564   -1.284955    1.311673
O       2.013953   -0.162219    1.512587
N       4.052108   -1.298675    1.312900
C       4.794878   -0.062789    1.495768
H       1.218351    1.528687   -0.301745
H      -0.227351    1.196422   -1.295976
H      -0.411698    1.734719    0.395948
H       0.094231    0.144413    2.091942
H       0.446053   -2.167426    2.709609
H      -0.322723   -2.428732    1.129502
H       2.292126   -3.360177    1.627799
H       1.842083   -2.720238    0.043917
H       5.415303   -0.148065    2.395597
H       5.482375    0.066833    0.652054
H       4.171835    0.834213    1.583876
