17

N      -0.046016   -1.162994   -0.112600
C      -0.007582   -0.009667   -0.054030
C       0.004046    1.450212    0.036583
C      -0.485243    2.021357    1.395322
C       0.672481    1.579317    2.314540
C       1.798292    2.099782    1.428957
C       1.282740    3.300205    0.712532
C      -0.160131    3.511928    1.158776
N       1.389050    1.996558    0.000147
H      -0.562836    1.853009   -0.808818
H      -1.497479    1.767015    1.700778
H       0.644366    2.075131    3.289135
H       0.711295    0.497910    2.469043
H       2.845442    1.931142    1.644092
H       1.911622    4.102932    0.348925
H      -0.787067    3.973293    0.389645
H      -0.232793    4.108268    2.073132
