19

C      -0.191921    1.466255   -0.177773
C      -0.015938   -0.037159   -0.019924
C       1.133038   -0.636476   -0.938771
O       1.560077    0.032350   -2.085528
C       2.008482   -0.521598    0.303865
O       3.148989   -0.161729    0.427415
C       0.776301   -0.516796    1.245198
C       0.839464    0.324353    2.503255
O       0.339166   -1.850392    1.502730
H       0.753822    2.005559   -0.054581
H      -0.563374    1.695473   -1.179898
H      -0.902247    1.862400    0.553672
H      -0.963877   -0.569177   -0.118919
H       0.890327   -1.676060   -1.179264
H       2.364543    0.513414   -1.853856
H       1.128207    1.355234    2.285148
H      -0.131658    0.326424    3.007249
H       1.586350   -0.084178    3.193546
H       0.950048   -2.244883    2.135883
