18

C      -0.029616    1.505129   -0.039500
C      -0.017567   -0.005798    0.005763
C      -1.378904   -0.764112   -0.028125
C      -0.903541   -1.590662    1.189885
O      -1.395040   -2.468086    1.836829
C       0.430275   -0.809715    1.264683
N       1.645292   -1.389480    0.549145
C       1.183074   -2.158611   -0.626867
C       1.164574   -0.687371   -0.718133
H       0.959356    1.914499    0.192894
H      -0.313986    1.867058   -1.034707
H      -0.743122    1.918049    0.681370
H      -2.228241   -0.123907    0.236023
H      -1.639555   -1.331803   -0.926075
H       0.713401   -0.361953    2.218336
H       2.008118   -2.665772   -1.118789
H       0.273173   -2.748854   -0.579846
H       1.865706   -0.144144   -1.345837
