16

C       0.122527    1.372753    0.197874
N      -0.293967    0.048671   -0.215130
C       0.519994   -0.630272   -0.884997
O       0.194680   -1.896057   -1.267741
C       1.030513   -2.515891   -2.155678
C       1.421308   -3.836501   -2.077529
N       2.184021   -4.047862   -3.178790
N       2.320054   -2.963516   -3.958097
C       1.611139   -2.018551   -3.343820
H       1.130686    1.655097   -0.146031
H      -0.591660    2.113346   -0.178762
H       0.101249    1.438008    1.291493
H       1.523505   -0.315473   -1.203319
H       1.209506   -4.602388   -1.350503
H       2.632355   -4.904254   -3.456219
H       1.533999   -1.030330   -3.771055
