19

C       0.025884    1.564019    0.009112
C       0.033503    0.021855    0.024507
C       0.796667   -0.503315    1.257598
C      -1.422912   -0.516555    0.032083
C      -2.177996   -0.089248    1.206571
N      -2.762667    0.257424    2.141766
C       0.681206   -0.520353   -1.271679
N       1.977879   -0.158941   -1.478820
O       0.078084   -1.224914   -2.059836
H       1.039789    1.974248    0.028652
H      -0.473616    1.949026   -0.885462
H      -0.502496    1.948235    0.886601
H       0.294594   -0.186176    2.176362
H       0.846997   -1.596688    1.256360
H       1.821200   -0.121512    1.292362
H      -1.943689   -0.185432   -0.870562
H      -1.412814   -1.609049   -0.011524
H       2.496037    0.421167   -0.844583
H       2.432307   -0.493525   -2.312397
