17

C      -0.040193    1.510078    0.027628
C      -0.012818    0.016945   -0.040251
C       0.625661   -0.852926   -1.170363
C       1.000339   -2.132785   -0.460417
C       1.064724   -1.850733    1.028386
N       0.042131   -0.807309    1.183111
C      -1.036099   -1.041006    0.198486
C      -0.422783   -1.919918   -0.925670
H       0.972376    1.918113    0.133346
H      -0.479733    1.937876   -0.879992
H      -0.629400    1.840257    0.887183
H       1.052466   -0.501136   -2.098983
H       1.629023   -2.865134   -0.952295
H       0.805616   -2.719086    1.643046
H       2.037617   -1.465133    1.350731
H      -2.070726   -0.996540    0.515436
H      -0.950958   -2.545577   -1.630254
