19

C      -0.021053    1.475919   -0.020586
C       0.036691   -0.024919   -0.058428
C       0.581219   -0.944871   -1.172515
C       0.070124   -1.921490   -0.100960
C       0.530099   -0.999608    1.076942
C      -0.849560   -1.044589    1.756477
C      -1.175739   -1.015354    0.244055
C      -2.448897   -1.016439   -0.408760
C      -3.520983   -1.003417   -0.956971
H       0.981784    1.907795   -0.112202
H      -0.630365    1.862831   -0.844514
H      -0.457712    1.835922    0.917380
H       0.043595   -0.932522   -2.125799
H       1.663766   -0.921094   -1.336957
H       0.062484   -3.012108   -0.099763
H       1.521226   -0.994939    1.531399
H      -1.110385   -1.966122    2.285788
H      -1.152841   -0.168907    2.338424
H      -4.466695   -0.996865   -1.439470
