19

C      -0.037804    1.551761    0.028222
C       0.066231    0.044077    0.120634
C       1.297378   -0.785314   -0.203153
C       2.583459   -0.079458    0.271209
C       2.001399   -0.079787    1.734024
C       0.725275   -0.748357    1.213496
O       0.086475   -1.774956    1.886250
C       3.808615   -0.945317    0.152858
O       4.846431   -0.608231   -0.356276
H       0.856929    2.055709    0.402442
H      -0.184641    1.868702   -1.009801
H      -0.889722    1.920025    0.610437
H      -0.825010   -0.477655   -0.225991
H       1.263206   -1.575197   -0.944130
H       2.797065    0.896250   -0.170823
H       2.558181   -0.757077    2.387688
H       1.912463    0.893149    2.226480
H      -0.664054   -1.408204    2.365893
H       3.685973   -1.964598    0.590935
