19

C       0.067626    1.573088    0.122289
C      -0.200722    0.074676   -0.057601
C       0.603164   -0.531289   -1.200773
C       2.166621   -0.689055   -1.093248
C       2.316679   -1.686946    0.039888
C       1.332538   -2.582213   -0.168391
C       0.628489   -2.087452   -1.418854
C       1.949523   -1.767934   -2.234204
O       2.483378   -2.122489   -3.230172
H       1.115422    1.759335    0.380737
H      -0.152323    2.132800   -0.793673
H      -0.550969    1.989857    0.922848
H       0.019081   -0.458062    0.872357
H      -1.266509   -0.084342   -0.265404
H       0.349403   -0.027532   -2.143056
H       2.860031    0.143442   -1.184649
H       3.121400   -1.710104    0.760374
H       1.137562   -3.515785    0.339180
H      -0.210639   -2.643770   -1.830386
