20

C       0.382398    1.168450   -0.111361
C       0.159953    0.988027    1.379897
C       0.096549   -0.187919    0.445503
O      -1.156079   -0.716760    0.109782
C      -1.606985   -1.820363    0.847338
C      -0.951772   -3.249294    0.689553
C      -0.954648   -3.344396    2.217253
N      -0.031568   -2.285031    2.674157
C      -1.444853   -1.940926    2.367996
H      -0.416274    1.636574   -0.675723
H       1.381788    1.381367   -0.473834
H       1.005548    1.068807    2.054110
H      -0.781677    1.346781    1.780321
H       0.900573   -0.915751    0.497944
H      -2.669971   -1.901635    0.602591
H      -1.606911   -3.953014    0.173314
H       0.045484   -3.277441    0.245808
H      -1.167068   -4.208966    2.832650
H       0.033233   -2.348614    3.689799
H      -2.076382   -1.501041    3.130762
