17

O      -0.735012    0.981060    0.500789
C       0.274519    0.954282   -0.160433
C       1.376063    1.928377   -0.017836
O       2.307436    2.003311   -1.120127
C       2.797865    1.526373    0.125208
C       3.291762    2.591860    1.127037
C       2.640549    3.892472    0.580138
C       1.319879    3.149275    0.921225
C       2.100081    2.561043    2.149828
H       0.461115    0.182260   -0.938377
H       3.148342    0.498810    0.143226
H       4.334193    2.539111    1.439013
H       2.808686    4.735455    1.251777
H       2.828370    4.171249   -0.454993
H       0.360314    3.650998    1.022916
H       1.778919    1.590005    2.536438
H       2.217724    3.275614    2.967776
