19

C       0.014558   -1.178864    0.180705
C      -0.031550    0.014643    0.042089
C      -0.041238    1.464076   -0.118325
C       1.363781    2.079041   -0.012585
C       1.545092    3.594236    0.038305
C       1.484696    4.029632    1.514447
C       1.261565    2.780478    2.363391
C       2.158934    2.047779    1.328771
C       2.755200    3.461867    0.929782
H       0.038532   -2.233406    0.300362
H      -0.465830    1.722250   -1.097829
H      -0.709247    1.914175    0.624859
H       1.996835    1.662993   -0.803208
H       1.387005    4.312333   -0.756978
H       1.281820    5.061307    1.772656
H       1.773419    2.869595    3.325676
H       0.244941    2.408071    2.531914
H       2.722541    1.161062    1.608525
H       3.758637    3.851818    0.845569
