18

O      -0.449729    0.677708    0.767691
C       0.190398    1.011800   -0.198230
C       1.423791    1.850587   -0.141949
C       2.004252    2.100581    1.235936
C       3.197445    3.075179    1.244368
C       2.969924    4.271827    0.357998
C       2.190723    4.216777   -0.724391
C       1.504222    2.972819   -1.153407
N       2.251637    1.719121   -1.356561
H      -0.099553    0.722019   -1.232231
H       1.194006    2.502587    1.853555
H       2.290625    1.149141    1.695857
H       3.391877    3.397287    2.272787
H       4.114340    2.552558    0.933043
H       3.475322    5.198179    0.614909
H       2.037654    5.095841   -1.343176
H       0.687835    3.095732   -1.860535
H       3.231805    1.866400   -1.125412
