17

N      -0.186315    1.193873   -0.108978
C      -0.525061    0.004437   -0.355009
O      -0.287987   -0.946910    0.592051
C      -0.662612   -2.248552    0.313859
C      -0.449217   -3.400959    1.294265
C      -1.120509   -4.060974    0.069997
C      -2.029941   -2.818689   -0.214504
N      -1.614679   -2.660822   -1.649819
C      -0.373431   -3.138156   -0.950572
H      -0.424738    1.785703   -0.902910
H      -1.001706   -0.388302   -1.257599
H       0.587968   -3.680022    1.496571
H      -1.033732   -3.367268    2.217175
H      -1.393406   -5.101311   -0.092634
H      -3.036819   -2.615318    0.151177
H      -2.011568   -3.416423   -2.215067
H       0.577493   -3.312362   -1.454837
