19

O       0.711613    1.233679   -1.705281
C       0.328967    1.634753   -0.625817
N       1.056370    1.577044    0.520507
C       2.404989    1.030722    0.550235
C       3.473626    2.031733    0.089725
C       4.880020    1.428559    0.121212
C       5.943946    2.426138   -0.378401
C       7.296951    1.875949   -0.331924
N       8.359691    1.424687   -0.284483
H      -0.669878    2.086536   -0.463860
H       0.667657    1.980505    1.357181
H       2.611706    0.688011    1.569387
H       2.419023    0.155656   -0.106538
H       3.223309    2.351226   -0.927956
H       3.434673    2.925565    0.726163
H       5.136574    1.113807    1.139529
H       4.916458    0.528051   -0.502012
H       5.724856    2.727368   -1.409345
H       5.921393    3.340307    0.226602
