21

C      -0.043516    1.487820    0.004153
C      -0.015367   -0.017174   -0.058071
C       0.549204   -0.814643   -1.262626
C      -0.323324   -1.981338   -0.730641
C      -0.769441   -3.142105   -1.581109
C       0.153187   -2.247307    0.723258
C      -0.980421   -1.473853    1.362112
C       0.376560   -0.819955    1.212197
C      -1.304089   -0.935408   -0.061199
H       0.969577    1.900392    0.088383
H      -0.502363    1.916834   -0.893471
H      -0.614626    1.835363    0.872873
H       0.164473   -0.428562   -2.214216
H       1.632839   -0.960092   -1.334063
H       0.078821   -3.780886   -1.856930
H      -1.493006   -3.767514   -1.045439
H      -1.242043   -2.800258   -2.508531
H       0.702559   -3.097760    1.107752
H      -1.578100   -1.680968    2.239669
H       1.099308   -0.562025    1.976408
H      -2.266979   -0.642528   -0.475585
