20

C       0.063621    1.389390   -0.145934
O       0.000404   -0.016917   -0.144276
C       0.754564   -0.599796   -1.182309
C       0.636499   -2.121507   -1.051630
C       1.265324   -2.832610   -2.217180
C       0.590358   -2.806558   -3.578769
O       1.373394   -2.150855   -4.560119
N       2.383913   -3.413191   -2.003234
O       2.879235   -4.023366   -3.181459
H       1.093997    1.752755   -0.005666
H      -0.323920    1.815291   -1.085075
H      -0.552024    1.745324    0.683684
H       0.388986   -0.260243   -2.166256
H       1.814046   -0.302664   -1.113911
H       1.110015   -2.443533   -0.121407
H      -0.429273   -2.375587   -0.994821
H       0.357329   -3.842695   -3.869944
H      -0.354178   -2.259789   -3.516341
H       2.201146   -2.645150   -4.604718
H       3.708158   -4.408430   -2.879689
