20

C      -0.201886    1.535574   -0.051731
C       0.042608    0.035971    0.036617
O       0.824372   -0.407853   -1.103136
C       1.900789   -1.209305   -0.571963
C       1.261028   -1.869768    0.656819
C       0.843074   -0.507079    1.254888
C       2.170723    0.257671    1.265030
N       3.386842   -0.582234    1.385146
C       2.880810   -0.205633    0.044852
H       0.734123    2.098966   -0.044065
H      -0.725561    1.770716   -0.982778
H      -0.825996    1.873580    0.782949
H      -0.929299   -0.478806    0.001526
H       2.276122   -1.853446   -1.367090
H       0.406763   -2.490698    0.380321
H       1.959394   -2.426524    1.276829
H       0.277616   -0.524485    2.187597
H       2.212810    1.285901    1.603740
H       4.168155    0.028486    1.612193
H       3.451571    0.459744   -0.592513
