20

C      -0.000673    1.503350    0.017865
C      -0.007210   -0.012596   -0.038045
C       0.654853   -0.698641   -1.264993
C       0.557779   -2.129335   -0.713143
C       1.263395   -2.034307    0.648845
C       0.698690   -0.751463    1.141865
N      -0.010072   -2.041909    1.430401
C      -0.784965   -2.132509    0.127577
C      -1.379883   -0.739232   -0.036032
H       1.021535    1.897552    0.018481
H      -0.519973    1.932239   -0.845810
H      -0.499995    1.869936    0.921350
H       0.094050   -0.530345   -2.191403
H       1.694645   -0.389145   -1.416385
H       0.772408   -2.967007   -1.372658
H       2.170047   -2.520310    0.993630
H       1.089069   -0.225644    2.005128
H      -1.437782   -3.002165    0.081509
H      -2.011364   -0.471389    0.816606
H      -1.939162   -0.589697   -0.965285
