18

C       0.481302    1.615916   -0.465082
C      -0.142542    0.432363    0.290948
C      -0.246129   -0.759902   -0.550821
N      -0.310219   -1.700573   -1.219805
C       0.603845    0.130443    1.624078
O       1.397110    0.929522    2.056174
C       0.244191   -1.149380    2.342761
C       0.880734   -1.258664    3.721799
O       0.445872   -2.488572    4.276972
H       1.493461    1.371504   -0.794182
H      -0.121234    1.868797   -1.339852
H       0.540170    2.478715    0.199377
H      -1.167724    0.694582    0.593580
H      -0.848203   -1.228065    2.421261
H       0.545870   -2.000549    1.719413
H       1.974465   -1.214222    3.625902
H       0.576453   -0.400670    4.339115
H       0.861095   -2.592689    5.137942
