14

C      -0.024683    1.468632    0.043336
C       1.215799    1.984761    0.026689
C       2.245082    0.863625   -0.030700
N       2.495709    0.672097    1.428695
C       1.645655   -0.211174    1.799744
N       0.899413   -0.905167    0.826461
C       0.013199    0.013397   -0.158951
C       1.408713   -0.369808   -0.441584
H      -0.938093    2.016713    0.237809
H       1.486663    3.011305    0.238232
H       3.162103    1.057561   -0.585536
H       1.476469   -0.459959    2.843257
H      -0.843283   -0.551711   -0.501724
H       1.712301   -1.075798   -1.207954
