18

C       0.116410    1.572056   -0.243464
C      -0.127198    0.110322    0.090237
O      -0.415931   -0.244703    1.210402
C       0.037876   -0.875013   -1.063312
C       1.556489   -1.155629   -1.349130
C       1.593127   -2.644714   -1.591368
C       0.435262   -3.235235   -1.307190
C      -0.604301   -2.261899   -0.813008
H       1.059957    1.700274   -0.784597
H      -0.679346    1.932398   -0.906527
H       0.123385    2.169179    0.669078
H      -0.390174   -0.420180   -1.963021
H       1.927028   -0.573021   -2.200051
H       2.190153   -0.886718   -0.491694
H       2.494391   -3.149843   -1.921036
H       0.244986   -4.300699   -1.376850
H      -0.803852   -2.395591    0.257188
H      -1.565221   -2.366809   -1.329526
