19

C      -0.924922    1.158662    0.250003
C       0.024724   -0.003716   -0.007041
C       0.923827   -0.025055   -1.289266
C       2.168072   -0.379911   -0.433453
C       2.882099   -1.752352   -0.541000
O       4.169177   -1.130402   -0.684696
C       3.587606    0.186482   -0.616850
C       1.327732   -0.063390    0.808651
O       1.609286    0.170079    1.949663
H      -0.411329    2.118697    0.133444
H      -1.769622    1.139850   -0.445568
H      -1.319644    1.113327    1.269242
H      -0.504691   -0.959328    0.103160
H       0.652197   -0.749728   -2.059685
H       1.008254    0.964346   -1.749050
H       2.827886   -2.388365    0.351136
H       2.600509   -2.338366   -1.426197
H       3.743449    0.758257   -1.540815
H       3.962551    0.758588    0.240507
