20

C      -0.230920    1.552128    0.070512
C       0.033405    0.044639    0.019635
N       0.672503   -0.379233   -1.253141
C       2.032716    0.126320   -1.488101
C       1.831144   -1.224062   -0.886813
C       1.893417   -1.266594    0.600757
C       0.918258   -0.521593    1.124158
C       0.655664   -0.257625    2.569494
O       1.588752   -0.969050    3.362490
H       0.699336    2.127543    0.091035
H      -0.805396    1.858784   -0.807976
H      -0.810303    1.814553    0.961447
H      -0.946838   -0.456390    0.054400
H       2.284780    0.232413   -2.540221
H       2.443284    0.892599   -0.835654
H       2.004474   -2.124252   -1.471094
H       2.638941   -1.811178    1.163792
H       0.713679    0.828491    2.761345
H      -0.382735   -0.552873    2.808557
H       1.402086   -0.779355    4.286199
