18

C      -0.135424    1.492725   -0.107586
C       0.163280   -0.005637   -0.141852
O       1.297072   -0.293159   -0.957187
C       0.500130   -0.536084    1.252196
N       0.584113   -1.983882    1.307465
C       1.481977   -2.822253    0.736805
C       1.061022   -4.073508    1.117164
N      -0.054012   -3.944634    1.887928
N      -0.342927   -2.680628    2.003478
H       0.719395    2.046526    0.293186
H      -0.335293    1.864385   -1.117879
H      -1.015327    1.707378    0.507163
H      -0.718672   -0.552016   -0.508674
H       1.066664   -0.111091   -1.873315
H       1.452596   -0.103301    1.576306
H      -0.276874   -0.255168    1.964729
H       2.287653   -2.459299    0.123978
H       1.485039   -5.037834    0.888713
