19

O      -0.007598    1.425945   -0.093744
C       0.027828    0.019721    0.016624
C       0.650024   -0.527032    1.347041
C      -0.528297   -1.314649    1.969979
O      -0.200061   -2.257143    2.957239
C      -1.616261   -0.291783    2.365495
O      -2.132019    0.174067    1.111449
C      -1.412954   -0.533433    0.094648
C      -1.189408   -1.917797    0.714722
H       0.894886    1.738239   -0.208915
H       0.534800   -0.425893   -0.852285
H       1.493695   -1.199765    1.166272
H       0.987461    0.298011    1.982994
H       0.232106   -1.796458    3.684315
H      -2.411095   -0.774436    2.949415
H      -1.215440    0.553150    2.941218
H      -1.978513   -0.460456   -0.833960
H      -0.515082   -2.564441    0.147541
H      -2.121283   -2.445516    0.927698
