23

C       0.397267    1.397763    0.210949
C      -0.160721    0.008211    0.028589
C      -0.218340   -0.654500   -1.137186
C       0.265301   -0.122695   -2.463306
C      -0.834168   -2.036057   -1.253023
C      -0.924011   -2.823799    0.037409
C       0.291978   -2.962195    0.921947
C      -0.859309   -2.081012    1.344154
C      -0.706755   -0.574391    1.318446
H       1.258001    1.381076    0.892706
H       0.716903    1.873792   -0.716020
H      -0.349890    2.052131    0.679643
H       0.633293    0.902512   -2.423791
H       1.072400   -0.752933   -2.859974
H      -0.541778   -0.157309   -3.207321
H      -1.843865   -1.930220   -1.680383
H      -0.270085   -2.613742   -2.000149
H      -1.583443   -3.685751   -0.009147
H       0.441961   -3.899144    1.447093
H       1.206681   -2.474814    0.599644
H      -1.476221   -2.454809    2.156355
H      -0.064163   -0.253766    2.151752
H      -1.685174   -0.110659    1.520885
