15

O      -0.161869    1.467141    0.175213
C      -0.023396    0.077525    0.068489
C       0.373450   -0.770573    1.322274
C      -0.846078   -1.701607    1.056421
C      -2.104991   -1.270136    1.817499
O      -2.379706   -0.226442    0.854361
C      -1.348540   -0.700655   -0.031294
H       0.716725    1.858927    0.198178
H       0.610897   -0.207037   -0.786693
H       1.355886   -1.244700    1.268418
H       0.296094   -0.214767    2.260820
H      -0.660539   -2.760834    0.889842
H      -2.909852   -2.017845    1.831642
H      -1.961344   -0.876724    2.831604
H      -1.738043   -0.950072   -1.022583
