20

C      -0.061098    1.663142    0.009560
C       0.025426    0.130862    0.001516
C       0.532739   -0.728998   -1.196513
C       2.049644   -0.522789   -1.234691
C       2.718572    0.584694   -0.503091
N       2.414014   -0.659893    0.219471
C       1.038659   -0.777931    0.779081
C       0.529592   -1.926196   -0.179749
O      -0.749969   -2.463994    0.034948
H       0.389217    2.117389   -0.877263
H      -1.108403    1.980196    0.032431
H       0.423205    2.101166    0.889333
H      -0.956992   -0.262116    0.263009
H      -0.002961   -0.784638   -2.144011
H       2.623933   -1.117793   -1.939979
H       3.785200    0.706040   -0.676310
H       2.211201    1.503334   -0.256236
H       1.030175   -0.864587    1.866627
H       1.274605   -2.709165   -0.362664
H      -0.689094   -3.100122    0.754385
