16

C      -0.037085    1.553299   -0.000502
C       0.061266    0.046174   -0.071308
O      -1.074904   -0.608418    0.425651
C       0.672254   -0.733733   -1.170847
C       1.884556   -0.023552   -1.785951
C       2.546899   -0.073625   -0.378983
O       3.653729    0.177805    0.008434
C       1.358589   -0.737220    0.236820
H       0.849750    2.049461   -0.399263
H      -0.914304    1.898558   -0.556870
H      -0.147139    1.875093    1.042099
H      -1.214702   -0.315842    1.333264
H       0.138521   -1.561873   -1.617811
H       2.445187   -0.666233   -2.471370
H       1.732064    0.949834   -2.259074
H       1.345827   -1.478892    1.025733
