16

O       0.094329    1.377573   -0.145526
C       0.052652   -0.026351   -0.078501
C       0.751023   -0.636833    1.166240
C       0.019421   -1.960913    1.472660
C      -1.383667   -1.730257    0.947059
O      -1.940255   -0.459419    1.307955
C      -1.363956   -0.603672   -0.004251
C      -2.265252   -0.480136   -1.121716
N      -2.958869   -0.378065   -2.040431
H      -0.363768    1.721285    0.631003
H       0.520115   -0.378375   -1.004761
H       1.821506   -0.768523    1.001100
H       0.629768    0.060359    1.999552
H       0.460427   -2.804108    0.928788
H       0.027005   -2.216750    2.536174
H      -2.104049   -2.538719    0.859318
