18

C      -0.002827    1.475528   -0.190052
O       1.389424    1.581906    0.165607
C       1.458954    0.191348    0.536670
C       0.012717   -0.056376    0.039826
N      -0.943627   -0.630110    0.949645
C      -1.206063   -0.202387    2.233246
C      -2.181407   -1.011142    2.766125
C      -2.529096   -1.968785    1.773452
C      -1.752495   -1.708919    0.670471
H      -0.656259    2.022371    0.500606
H      -0.196204    1.811951   -1.214925
H       2.254659   -0.341139    0.003518
H       1.588581    0.050264    1.616629
H      -0.030336   -0.629517   -0.886370
H      -0.678318    0.637587    2.655866
H      -2.598363   -0.924536    3.757830
H      -3.262618   -2.755573    1.858736
H      -1.699076   -2.192886   -0.292112
