19

C       0.057291    1.562519    0.311453
C      -0.087768    0.103617   -0.101797
O       0.746739   -0.772110    0.666882
C      -1.517489   -0.380717   -0.040451
N      -2.562535    0.371171    0.020407
C      -3.707642   -0.498754    0.045772
C      -3.954160   -1.401943   -1.145939
C      -3.170791   -1.945062    0.017381
N      -1.751011   -1.741618   -0.071402
H       1.103555    1.868247    0.231422
H      -0.561221    2.201693   -0.321565
H      -0.280688    1.706670    1.343359
H       0.271609   -0.023725   -1.130572
H       0.596734   -0.563557    1.596221
H      -4.555994   -0.163837    0.632505
H      -4.967760   -1.769384   -1.263751
H      -3.425927   -1.196041   -2.071386
H      -3.526548   -2.775466    0.615531
H      -1.073475   -2.374300    0.321445
