11

N       0.055073    1.283149   -0.087260
C      -0.071924   -0.050529   -0.035405
N      -1.170862   -0.748590   -0.010480
C      -0.689719   -2.047408   -0.007486
N      -1.102139   -3.281412    0.011737
O       0.089528   -4.016879    0.004624
N       1.238181   -3.209958   -0.018776
C       0.721093   -2.031597   -0.026053
O       1.146196   -0.741095   -0.044590
H       0.952745    1.696644    0.098362
H      -0.773021    1.834051    0.063838
