17

C      -0.081834    1.545507    0.004259
C       0.115965    0.029726    0.015667
C       0.766879   -0.511957    1.308845
C       1.012282   -2.059135    1.251668
O       2.442633   -2.193419    1.391600
C       2.918102   -0.936537    1.506217
N       2.127626    0.054937    1.486627
C      -0.059813   -0.161652    2.477314
N      -0.731868    0.082920    3.384838
H       0.871435    2.060499    0.143337
H      -0.513426    1.863523   -0.948854
H      -0.759059    1.861339    0.803375
H      -0.843223   -0.483934   -0.122394
H       0.767545   -0.276082   -0.811035
H       0.530530   -2.607432    2.062561
H       0.716444   -2.486380    0.290168
H       3.995592   -0.871308    1.608028
