21

C      -0.135636    1.566517   -0.089876
C      -0.006400    0.062673   -0.004267
C       0.917167   -0.678075   -1.012059
C       1.612538   -1.446887    0.145150
C       0.715182   -0.735115    1.196561
C       1.360951   -0.088143    2.400715
C      -0.600473   -1.487961    1.392768
O      -1.624080   -0.521605    1.661844
C      -1.259238   -0.759627    0.296471
H       0.844968    2.054269   -0.055147
H      -0.617322    1.864820   -1.029528
H      -0.738602    1.950806    0.738061
H       0.400690   -1.290192   -1.757545
H       1.589401    0.000391   -1.543560
H       1.528901   -2.537555    0.119973
H       2.670359   -1.194730    0.255327
H       2.141770    0.620504    2.102670
H       0.617799    0.451399    2.995144
H       1.830657   -0.842027    3.044910
H      -0.761367   -2.496191    1.761940
H      -2.048427   -1.073212   -0.379953
