18

C      -0.175426    1.279437    0.703631
O      -0.162289   -0.127154    0.772692
C       1.045139   -0.693226    0.313323
C       0.950536   -2.215885    0.463932
O       2.081457   -2.835363   -0.113204
C       0.806040   -2.610387    1.925147
C       1.192260   -3.941688    2.395912
O       2.062213   -2.813538    2.595816
H      -0.045566    1.636549   -0.329805
H      -1.146022    1.617100    1.074978
H       0.618421    1.725327    1.323051
H       1.224485   -0.448976   -0.745066
H       1.904588   -0.315434    0.894031
H       0.067387   -2.558932   -0.088593
H       2.763931   -2.813762    0.573619
H       0.077596   -2.033806    2.490952
H       0.747035   -4.343296    3.303862
H       1.551779   -4.673598    1.676667
