21

C      -0.116775    1.540925    0.066259
C       0.035762    0.038504    0.112516
C       1.323253   -0.710281   -0.225142
C       2.603989    0.047226   -0.149439
C       2.847421    0.493254    1.085845
C       1.771481    0.068810    2.062591
C       0.770588   -0.711906    1.199169
C       0.137144   -1.935829    1.795455
O      -0.726829   -1.521544    2.850205
H       0.818473    2.055065    0.298825
H      -0.436102    1.866036   -0.930107
H      -0.875283    1.873256    0.783688
H      -0.853189   -0.490533   -0.226766
H       1.251549   -1.580844   -0.870494
H       3.229757    0.226850   -1.016602
H       3.690096    1.110857    1.377030
H       2.175274   -0.564413    2.864312
H       1.306619    0.927040    2.563927
H      -0.419613   -2.483370    1.017522
H       0.919708   -2.612609    2.176964
H      -1.040656   -2.308659    3.305534
