17

O      -0.644554    0.776610   -0.727177
C       0.248457    0.825233    0.079274
C       1.384854    1.814416    0.029722
C       1.384147    2.914019    1.133700
C       2.904325    2.634819    1.082531
O       2.606464    1.277457    0.612342
C       3.521417    3.410655   -0.062515
C       2.921443    3.281124   -1.245803
C       1.698682    2.394803   -1.356700
H       0.295985    0.146075    0.959502
H       1.021611    3.909610    0.876218
H       0.925291    2.549853    2.055575
H       3.487577    2.633232    2.004607
H       4.395469    4.031625    0.098618
H       3.282225    3.780241   -2.140027
H       1.874686    1.576538   -2.066104
H       0.832877    2.947605   -1.739264
