19

O      -0.130337    1.455603   -0.045671
C       0.032404    0.046235   -0.051761
C      -1.352526   -0.579230    0.082760
C      -1.327999   -2.081755    0.104064
C      -0.667288   -3.074618    1.094651
C      -1.354250   -4.012898    0.080765
C      -2.551494   -3.036001   -0.116868
O      -2.461870   -3.013614   -1.572859
C      -1.078925   -3.048086   -1.110545
H       0.737068    1.860022   -0.138347
H       0.505084   -0.298373   -0.985800
H       0.674741   -0.284634    0.780416
H      -1.818401   -0.196983    0.999362
H      -1.975726   -0.248529   -0.756448
H       0.426370   -3.096564    1.115749
H      -1.064543   -3.081366    2.114117
H      -1.388067   -5.101086    0.041526
H      -3.537193   -3.027033    0.349352
H      -0.279042   -3.058534   -1.851600
