21

C      -0.302397    1.559519    0.004903
C       0.081920    0.081921   -0.028188
O      -1.102140   -0.726574   -0.123571
C       1.062426   -0.299705   -1.162782
C       1.595626   -1.682300   -0.744802
C       1.739374   -1.567508    0.770570
O       2.893401   -0.776500    1.157916
C       2.057858    0.256650    1.715900
C       0.772097   -0.446883    1.242960
H       0.569993    2.207605    0.128555
H      -0.792755    1.847781   -0.932667
H      -1.001810    1.752654    0.823638
H      -1.532910   -0.515930   -0.959268
H       0.568990   -0.297067   -2.140607
H       1.881444    0.426172   -1.209618
H       0.859628   -2.458264   -0.977776
H       2.543291   -1.948892   -1.220435
H       1.723865   -2.527632    1.296397
H       2.162633    0.320296    2.806722
H       2.279411    1.241530    1.286109
H       0.037149   -0.680059    2.012695
