19

C      -0.345565    1.250461   -0.001826
O       0.221029   -0.050417    0.100248
C       0.771224   -0.507626   -1.055620
C       0.206536   -0.864590   -2.434564
C       1.284418   -0.055698   -3.151251
C       2.127394   -0.254504   -1.866803
O       2.394607   -1.682312   -1.854280
C       1.011008   -1.882350   -1.552933
C       0.534180   -3.227923   -1.128676
H       0.421892    2.004192   -0.224086
H      -1.115298    1.286574   -0.783464
H      -0.797122    1.475666    0.966189
H      -0.818141   -1.061059   -2.724484
H       1.725257   -0.458141   -4.068165
H       0.985898    0.986765   -3.292762
H       2.991889    0.354361   -1.611007
H       1.092965   -3.579159   -0.255776
H      -0.525856   -3.184515   -0.862914
H       0.656964   -3.958311   -1.935094
