20

C      -0.020157    1.529724   -0.070300
O       1.340756    1.981818    0.001511
C       2.168033    0.834493    0.227694
C       1.437066   -0.296440   -0.499645
C       0.011562   -0.014201    0.014516
C      -0.130737   -0.519855    1.464692
C       1.045975   -0.098254    2.342368
N       2.318029   -0.830451    2.156347
C       2.222659    0.574005    1.726774
H      -0.604526    1.977816    0.743873
H      -0.446549    1.873046   -1.021455
H       3.158426    1.062057   -0.176545
H       1.511855   -0.151708   -1.581145
H       1.806213   -1.287144   -0.234402
H      -0.766739   -0.457697   -0.611753
H      -1.056894   -0.124262    1.898031
H      -0.216506   -1.612738    1.473887
H       0.795155    0.180483    3.362987
H       2.816211   -0.892583    3.040327
H       2.742775    1.332269    2.307354
