23

C      -0.050450    1.569293    0.045396
C      -0.011040    0.028990   -0.005160
C       0.582024   -0.488826   -1.343725
C       2.122717   -0.591477   -1.344763
C       2.511735   -1.579990   -0.252523
C       3.845218   -1.532129    0.563814
C       3.004165   -1.709016    1.875727
C       1.808038   -1.277310    1.052062
C       0.735903   -0.510965    1.198405
H       0.953250    1.994373   -0.061964
H      -0.677908    1.971668   -0.757181
H      -0.456610    1.923092    0.998965
H      -1.054579   -0.314761    0.045335
H       0.175464   -1.486739   -1.551209
H       0.241838    0.158600   -2.159647
H       2.481804   -0.897057   -2.333843
H       2.567344    0.388554   -1.129927
H       2.322882   -2.609951   -0.585683
H       4.599043   -2.291582    0.343652
H       4.307373   -0.542187    0.518665
H       2.956923   -2.760517    2.181869
H       3.272569   -1.105257    2.746651
H       0.402897   -0.179761    2.180868
