18

C      -0.410401    1.222947   -0.169316
C      -0.209961   -0.212179   -0.044388
C      -0.056426   -1.403033    0.044647
C       0.158118   -2.820821    0.138344
C      -0.514954   -3.615668    1.240952
N      -0.913626   -3.764346   -0.136267
C      -2.155533   -3.463399   -0.701883
C      -3.326237   -4.140580   -0.012048
O      -2.262629   -2.782613   -1.694026
H       0.488621    1.713522   -0.557922
H      -1.233541    1.443481   -0.857551
H      -0.648638    1.681210    0.796868
H       1.135954   -3.164799   -0.192947
H       0.004646   -4.458968    1.689612
H      -1.164257   -3.056865    1.910641
H      -3.600866   -3.581228    0.889621
H      -4.180489   -4.148611   -0.689020
H      -3.074598   -5.159318    0.294172
