17

O       0.037270    1.510086    0.143371
C       0.021353    0.111066    0.009809
C      -1.340038   -0.577869   -0.041003
C      -1.978846   -0.374701   -1.475206
C      -0.779635    0.194349   -2.252817
C       0.249610   -0.546886   -1.374118
O       1.561364   -0.716736   -1.798456
C      -0.727300   -1.729385   -0.871836
O      -1.852191   -1.805303   -1.755867
H       0.951860    1.804272    0.075522
H       0.651569   -0.377349    0.767390
H      -1.994551   -0.717513    0.814909
H      -2.980195    0.019549   -1.638127
H      -0.801281   -0.142798   -3.292426
H      -0.665296    1.277007   -2.193844
H       1.551430   -1.052937   -2.701089
H      -0.324827   -2.673874   -0.510689
