18

C       0.129331    1.311307   -0.156764
O      -0.311451    0.011449    0.196012
C       0.492987   -0.594304    1.154888
C       0.127463   -2.021766    1.550713
N       0.355949   -2.860902    0.366683
C       1.520064   -2.539405    1.267958
C       2.362057   -3.594372    1.911291
C       1.924821   -1.153662    0.806523
O       2.959002   -0.647813    0.478447
H       1.139423    1.295865   -0.584101
H      -0.572923    1.693198   -0.900635
H       0.129052    1.984671    0.714997
H       0.610643    0.043761    2.050788
H      -0.539030   -2.324059    2.348284
H       0.078598   -3.813154    0.610639
H       1.740932   -4.379115    2.356266
H       3.025587   -4.062668    1.176798
H       2.988381   -3.166448    2.700145
