15

O      -0.630050    1.361796    0.770751
C       0.192931    0.940854   -0.002418
C       1.515241    1.632421   -0.251886
O       2.364485    0.920050   -1.164968
C       2.430798    2.038057   -2.087925
C       1.456744    2.828291   -1.221502
C       0.309391    3.696630   -1.552649
N       1.531825    4.239698   -0.920461
H       0.030497    0.032086   -0.623312
H       2.006224    1.851659    0.707054
H       3.437704    2.467313   -2.144664
H       2.087500    1.759650   -3.090657
H       0.147268    4.015847   -2.578576
H      -0.589677    3.593904   -0.951176
H       1.378045    4.407509    0.071344
