15

O      -0.004507   -0.029564   -0.046737
C      -0.042880    1.172707   -0.014124
C      -1.283572    2.069746    0.002943
C      -0.731672    3.486741    0.000927
C      -1.361553    4.645360   -0.690048
N      -1.311689    4.598296    0.773087
C       0.776532    3.378482    0.032595
O       1.587696    4.265939    0.041177
N       1.063003    2.013549    0.017207
H      -1.910397    1.832259   -0.860716
H      -1.862437    1.838968    0.903561
H      -0.716478    5.395360   -1.137883
H      -2.306013    4.468220   -1.198355
H      -2.213314    4.304810    1.143766
H       2.009244    1.658804    0.011995
