18

C      -0.235683    1.348145   -0.284155
C      -0.082593   -0.088830   -0.118724
C       0.029598   -1.281959    0.001024
C       0.208067   -2.701680    0.124243
C      -0.413263   -3.479541    1.279584
C      -1.225974   -2.787920    2.346998
N      -0.904483   -3.620730   -0.072253
C      -2.162231   -3.337672   -0.567021
O      -2.394153   -2.671173   -1.544657
H       0.625669    1.777948   -0.806790
H      -1.131000    1.579761   -0.871123
H      -0.326846    1.856250    0.682100
H       1.152922   -3.078244   -0.263969
H       0.159679   -4.339570    1.625813
H      -1.706804   -1.887827    1.956362
H      -1.997144   -3.455219    2.744839
H      -0.576790   -2.496421    3.178773
H      -2.946846   -3.875028    0.002517
