10

F       0.003029    0.069102   -0.080414
C      -0.028533    1.402999    0.007989
F       1.228341    1.850504   -0.082149
F      -0.705736    1.867762   -1.052969
C      -0.703631    1.868636    1.294959
C      -0.024636    1.402789    2.493474
C       0.531895    1.021296    3.485862
H      -0.738060    2.962950    1.262464
H      -1.737925    1.509427    1.263890
H       1.027409    0.681369    4.361654
