20

C      -0.077907    1.513010   -0.005186
C       0.023393   -0.015557    0.024677
C      -1.351862   -0.563203   -0.357504
N       1.237168   -0.626339   -0.754264
C       2.100747   -0.124937    0.414553
C       0.869586   -0.712411    1.159647
C       1.055760   -1.866235    0.139890
C       0.596552   -0.774266    2.571698
C       0.353087   -0.816449    3.749553
H      -0.050790    1.857012   -1.044926
H      -1.035443    1.825471    0.421066
H       0.703170    2.036662    0.545244
H      -1.681161   -0.093585   -1.290332
H      -1.401472   -1.641395   -0.499466
H      -2.076157   -0.296422    0.419222
H       3.039351   -0.673599    0.517368
H       2.279929    0.947033    0.431113
H       0.212030   -2.505681   -0.105769
H       1.969368   -2.457228    0.232724
H       0.140870   -0.855218    4.789418
