20

C      -0.034030    1.538457   -0.010488
C      -0.018571    0.000395    0.009416
C      -1.462084   -0.542344    0.022148
C       0.730943   -0.518651   -1.232562
O       1.004191   -1.906288   -1.141475
C       1.922642   -2.205732   -0.108399
C       1.621674   -1.479802    1.173444
C       0.730002   -0.494092    1.230508
H       0.980838    1.949024    0.013188
H      -0.532089    1.913226   -0.911934
H      -0.576211    1.933487    0.855461
H      -2.045259   -0.115670   -0.802508
H      -1.458240   -1.630134   -0.083055
H      -1.970803   -0.290056    0.958575
H       0.127100   -0.385807   -2.136143
H       1.668674    0.047355   -1.361996
H       1.869684   -3.290713    0.042173
H       2.956527   -1.981432   -0.433216
H       2.171457   -1.798217    2.055574
H       0.511085   -0.001052    2.175898
