18

C      -0.023975    1.543243   -0.175782
C       1.526804    1.567718    0.038343
C       2.007467    1.961748    1.457351
C       2.120652    0.647272    2.279676
C       1.470287   -0.437032    1.427555
O       0.016232   -0.349237    1.419221
C      -0.014859    0.017260    0.020576
C       1.533063    0.002504   -0.045394
H      -0.640544    2.112874    0.525405
H      -0.297293    1.816143   -1.200195
H       2.070838    2.096662   -0.745470
H       2.975564    2.469635    1.413647
H       1.307749    2.666427    1.916376
H       3.171732    0.384888    2.448737
H       1.641322    0.710428    3.260882
H       1.792348   -1.453326    1.681203
H      -0.698581   -0.611798   -0.554803
H       2.144819   -0.521385   -0.776334
