18

C       0.088428    1.435029    0.088641
N       0.146394   -0.016050    0.046181
C       0.539988   -0.601814   -0.999634
O       0.970128    0.070965   -2.123713
C       0.781872   -0.630523   -3.348336
O       1.492941   -1.828307   -3.382672
C       1.073681   -2.713113   -2.373422
C       1.951010   -2.795410   -1.167444
C       0.600565   -2.086541   -1.081809
H       0.939316    1.816803    0.666641
H       0.102942    1.914468   -0.896327
H      -0.818354    1.735129    0.623597
H      -0.294705   -0.802227   -3.500686
H       1.183687    0.011682   -4.133028
H       0.577416   -3.602351   -2.752933
H       2.043416   -3.740843   -0.645974
H       2.841965   -2.178813   -1.181276
H      -0.171544   -2.586956   -0.511931
