16

C       0.108077    1.326925    0.293402
O      -0.005624    0.020089   -0.268876
C      -1.234058   -0.548343   -0.108285
C      -1.793619   -1.064223    1.201642
C      -1.633827   -1.990500    0.026691
O      -2.741976   -1.847746   -0.876848
C      -2.368240   -0.474517   -1.154556
C      -3.454682    0.482225   -0.946251
N      -4.290820    1.259701   -0.766320
H       1.141443    1.642093    0.140661
H      -0.564063    2.037350   -0.204112
H      -0.118346    1.315535    1.366606
H      -1.031819   -1.182028    1.966564
H      -2.784120   -0.793542    1.555731
H      -1.081120   -2.920561    0.008706
H      -1.973035   -0.381992   -2.172115
