15

O       0.041331    0.082315    0.697836
C       0.016099    1.124470    0.121311
O      -1.166116    1.704656   -0.221553
C      -1.178838    2.970878   -0.912765
C      -0.708804    2.782921   -2.356108
O       0.731009    2.814922   -2.266153
C       1.074448    3.029636   -0.928383
C      -0.068559    3.848722   -0.342329
O       1.156963    1.781885   -0.208201
H      -2.195893    3.348713   -0.818049
H      -1.035046    1.825687   -2.770956
H      -1.049440    3.597104   -3.006492
H       2.079589    3.444904   -0.883688
H      -0.088226    4.853838   -0.769790
H      -0.064577    3.901680    0.746470
