15

C       0.015431    1.427744    0.010025
N      -0.005338   -0.020740   -0.023498
C      -0.162937   -0.851989   -1.076341
N      -0.120810   -2.106341   -0.675977
C       0.070260   -1.986603    0.672264
N       0.145786   -0.736491    1.108289
C       0.185484   -3.167678    1.585506
N       0.077802   -4.348198    0.917400
O       0.355351   -3.066080    2.783436
H       0.972913    1.777468    0.402253
H      -0.123199    1.804396   -1.004675
H      -0.788776    1.796961    0.650226
H      -0.301255   -0.500141   -2.087847
H      -0.061613   -4.358548   -0.079074
H       0.142585   -5.205378    1.438617
