18

C      -0.087279    1.526323    0.036739
C      -0.015132    0.039460   -0.034409
C      -0.028447   -0.792995   -1.081513
C       0.074664   -2.173424   -0.471076
O       0.085372   -3.262499   -1.313620
C      -0.777527   -2.167857    0.857318
N       0.226213   -3.126657    1.456773
C       1.057996   -2.074060    0.759404
C       0.097022   -0.903979    1.164118
H       0.798979    1.947280    0.528974
H      -0.163562    1.969973   -0.959811
H      -0.953919    1.857715    0.623304
H      -0.095758   -0.579929   -2.138901
H       0.155720   -4.036592   -0.736167
H      -1.857036   -2.297130    0.977353
H       0.273753   -2.998317    2.470901
H       2.151663   -2.092285    0.763516
H       0.131426   -0.514214    2.182467
