21

O       0.085687    1.445016    0.025406
C       0.059239    0.008310    0.001322
C      -1.379979   -0.491563    0.193709
C      -1.519632   -1.915485    0.749577
C      -0.781559   -2.988755   -0.079076
C      -1.167043   -2.963963   -1.528892
C      -0.606731   -2.171118   -2.451530
C       0.513495   -1.247272   -2.252540
C       0.819040   -0.428934   -1.233416
H      -0.334696    1.745996   -0.788379
H       0.649299   -0.269113    0.886555
H      -1.848642    0.205230    0.896423
H      -1.924488   -0.400996   -0.752868
H      -1.142567   -1.948628    1.779464
H      -2.586768   -2.163180    0.804586
H       0.298399   -2.818335    0.007206
H      -0.987493   -3.975511    0.349927
H      -1.972371   -3.626268   -1.839582
H      -0.942359   -2.267133   -3.482954
H       1.221223   -1.242790   -3.082673
H       1.753989    0.123365   -1.318449
