21

C      -0.387921    1.458901   -0.025610
C       0.171201    0.027660    0.067492
C       0.827744   -0.445336   -1.195424
C       2.113235   -0.772218   -1.358233
C       2.410173   -1.190691   -2.750010
C       3.699059   -0.955249   -3.421291
O       3.344573   -2.262563   -2.967903
C       1.058756   -1.257570   -3.469641
C       0.056203   -0.587751   -2.496174
H       0.407144    2.174887   -0.256608
H      -1.150645    1.541927   -0.806046
H      -0.847982    1.756144    0.921502
H       0.888027   -0.032401    0.893712
H      -0.653610   -0.654623    0.318638
H       2.878011   -0.744585   -0.590041
H       3.722769   -0.822537   -4.503414
H       4.517142   -0.476530   -2.882219
H       1.080546   -0.779046   -4.451711
H       0.808730   -2.311123   -3.625649
H      -0.861004   -1.174564   -2.362185
H      -0.265398    0.394504   -2.865065
