14

O      -0.064290    1.455673   -0.360069
C      -0.018896    0.211671    0.311711
C      -1.350841   -0.491744    0.225076
O      -1.647684   -1.112686   -1.028440
C      -1.490622   -1.963862    0.115562
C      -0.361604   -2.851509    0.127971
C       0.556836   -3.636771    0.153910
C       1.601866   -4.514146    0.182775
N       2.492153   -5.259940    0.209500
H      -0.219232    1.273463   -1.293702
H       0.770767   -0.443379   -0.080785
H       0.212935    0.432963    1.358891
H      -2.192991    0.047739    0.660309
H      -2.417490   -2.411100    0.473701
