22

C       0.049775    1.547628   -0.123265
C       0.070293    0.059914    0.151974
N       1.236515   -0.825390   -0.072491
C       2.543716   -0.155268   -0.200277
C       2.851162    0.626495    1.106847
C       1.779627    0.154123    2.120244
C       0.735461   -0.603847    1.307285
C       0.113190   -1.824385    1.953155
O       1.082846   -2.834105    2.182099
H       0.840343    2.104225    0.380958
H       0.130393    1.742119   -1.198899
H      -0.907689    1.961803    0.209776
H      -0.841592   -0.425047   -0.198320
H       3.288523   -0.939702   -0.368420
H       2.556319    0.489628   -1.085333
H       3.862344    0.416428    1.465921
H       2.799872    1.705789    0.943972
H       2.207549   -0.545685    2.843690
H       1.347832    0.986719    2.684864
H      -0.306592   -1.572006    2.933468
H      -0.707637   -2.197182    1.322702
H       1.479040   -3.009514    1.319697
