18

O      -0.115644    1.365000    0.166399
C      -0.069690   -0.024854    0.246903
C      -0.982092   -0.752584    1.213954
C      -1.237959   -0.802867   -0.279533
O      -2.233332    0.006409   -0.839204
C      -3.533881   -0.506824   -0.742075
C      -4.417699   -0.104468    0.407597
C      -4.646463    0.458097   -0.983040
H      -0.922044    1.581164   -0.320010
H       0.930797   -0.415724    0.085162
H      -0.627956   -1.652447    1.705945
H      -1.640519   -0.128882    1.806868
H      -1.075352   -1.739023   -0.812528
H      -3.630332   -1.518240   -1.134316
H      -5.117879   -0.830966    0.805051
H      -3.996064    0.570489    1.142766
H      -4.363374    1.491521   -1.148634
H      -5.505089    0.125962   -1.555144
