17

N       0.049281    1.322703    0.139331
C      -0.046913   -0.039682    0.049424
N      -1.171429   -0.649020   -0.000609
C      -1.204295   -2.104423   -0.025693
C       0.066278   -2.787876   -0.548102
C       1.275699   -2.233735    0.206762
O       2.483879   -2.813821   -0.196316
C       1.296313   -0.732397    0.018704
O       2.331792   -0.127100   -0.175308
H       0.937049    1.720634   -0.124406
H      -0.781099    1.849322   -0.079728
H      -1.417327   -2.459515    0.995242
H      -2.067400   -2.406831   -0.628099
H       0.011429   -3.873159   -0.418460
H       0.193459   -2.590492   -1.619520
H       1.104133   -2.399137    1.290272
H       3.118253   -2.085593   -0.273478
