14

C      -0.018201    1.535446   -0.009596
C      -0.007120    0.041601    0.041460
C      -0.033831   -0.808782   -1.020919
O      -0.013652   -2.158796   -0.639258
C       0.026083   -2.090724    0.686654
C       0.033523   -0.826728    1.200162
C       0.077378   -1.097559    2.593910
N       0.093673   -2.389703    2.851058
O       0.059323   -3.058884    1.581034
H       0.875810    1.955408    0.464562
H      -0.052326    1.893877   -1.041595
H      -0.886540    1.944187    0.518948
H      -0.067111   -0.649342   -2.085481
H       0.098680   -0.424993    3.440300
