16

C      -0.004710    1.556538   -0.004545
C      -0.011003    0.013285    0.038939
C       0.772937   -0.526442    1.254554
C      -1.373739   -0.502135    0.027870
C      -2.510093   -0.928078    0.025534
C      -3.775368   -1.399777    0.027032
C      -4.915206   -1.824647    0.028651
C      -6.188435   -2.298911    0.030910
N      -7.279127   -2.705209    0.032891
H       1.026368    1.919544   -0.046589
H      -0.540441    1.930011   -0.880531
H      -0.479770    1.969348    0.889967
H       0.481685   -0.353826   -0.872677
H       0.322413   -0.179371    2.188800
H       0.784502   -1.618964    1.264717
H       1.805750   -0.168081    1.215331
