18

O       0.082773   -0.011174   -0.314499
C       0.051575    1.161325   -0.058379
N      -0.970958    2.007428    0.317179
C      -0.176436    3.245767    0.248851
C       0.059031    4.027057    1.555665
C       1.329113    3.456360    2.183856
C       1.356779    1.998610    2.555747
C       1.946159    2.438526    1.235653
C       1.072036    2.333310   -0.006039
H      -1.970550    1.861054    0.312879
H      -0.476042    3.890833   -0.582776
H       0.211568    5.085602    1.318834
H      -0.810621    3.968445    2.219824
H       1.959014    4.135539    2.748510
H       2.056128    1.694800    3.327291
H       0.428327    1.437794    2.554567
H       3.019617    2.370974    1.107173
H       1.623295    2.490007   -0.933676
