20

C      -0.716921    1.232285   -0.167819
C      -0.037051   -0.125446   -0.163324
C       1.416826   -0.281256   -0.728799
O       2.222409    0.868160   -0.621629
C       1.667145   -1.349452    0.378919
C       0.474025   -0.746629    1.163380
O       0.911605    0.313804    2.025634
C       1.216075   -0.011512    3.298818
N       1.804304    0.823690    4.038548
H      -0.082157    1.999483    0.278984
H      -0.944321    1.539084   -1.193592
H      -1.657268    1.203794    0.392545
H      -0.674054   -0.873985   -0.648407
H       1.502077   -0.612782   -1.766152
H       2.203074    1.161240    0.298262
H       1.456324   -2.366363    0.036618
H       2.643181   -1.323346    0.869085
H      -0.192111   -1.418398    1.715894
H       0.884722   -1.020546    3.580226
H       1.924487    0.438185    4.972901
