17

O      -0.058249    1.367361    0.061384
C       0.038767   -0.006310    0.043038
C       0.689522   -0.961890    1.072676
C       0.049312   -1.864657   -0.009293
C      -1.207673   -0.931548   -0.039880
C      -1.772970   -0.886285   -1.453548
C      -0.444751   -0.876460   -2.233975
O      -0.277589   -0.833959   -3.424908
C       0.588036   -0.916924   -1.136943
H       0.827847    1.745774    0.052013
H       1.781505   -0.965853    1.130650
H       0.233999   -0.988902    2.067086
H       0.051840   -2.951442   -0.052618
H      -1.887246   -0.952894    0.812689
H      -2.382246   -1.755549   -1.721000
H      -2.355013    0.015488   -1.667338
H       1.644578   -0.915333   -1.401859
