17

N       0.145181    1.378238   -0.291917
C       0.076446   -0.007676   -0.096566
C      -0.998222   -0.835310    0.002337
O      -0.590014   -2.120392    0.092331
N       0.790694   -2.154483    0.063969
C       1.190243   -0.908734   -0.053766
C       2.644809   -0.573711   -0.154381
C       3.050646   -0.129161   -1.572329
O       4.401941    0.289793   -1.634460
H       0.898613    1.810191    0.228914
H      -0.721463    1.853041   -0.075360
H      -2.064125   -0.672893    0.016401
H       2.904036    0.232273    0.543807
H       3.224958   -1.455082    0.138827
H       2.839264   -0.941381   -2.283194
H       2.451151    0.734309   -1.876331
H       4.958220   -0.480862   -1.482086
