16

O       0.178095    1.339756   -0.017642
C       0.124826   -0.060616   -0.070864
C      -0.084372   -0.630378   -1.513884
C      -0.552277   -1.950926   -0.867804
C      -1.189565   -0.815036   -0.042668
C      -1.612001   -0.102458   -1.359358
O      -1.176231   -0.951509    1.417673
C       0.203150   -0.645364    1.371771
N       1.061469   -0.674169    2.281680
H       0.512481    1.596590    0.847422
H       0.527742   -0.508989   -2.408824
H      -1.233469   -2.565480   -1.457037
H       0.214608   -2.545639   -0.367001
H      -1.739765    0.975873   -1.316709
H      -2.349961   -0.599325   -1.992800
H       0.665887   -0.996237    3.167579
