18

C       0.035996    1.380095   -0.396935
C      -0.086457    0.190482    0.573314
C      -1.383405   -0.473230    0.501482
C      -2.461101   -1.004984    0.413676
C      -3.750907   -1.638231    0.364244
N      -4.450283   -1.699748   -0.924732
C      -3.998209   -2.964762   -0.322335
C      -2.892672   -3.656080   -1.045341
O      -2.694943   -4.842879   -0.977229
H       1.023033    1.842848   -0.306503
H      -0.098954    1.053019   -1.431209
H      -0.722321    2.137324   -0.181060
H       0.706212   -0.539064    0.363723
H       0.084868    0.534309    1.601376
H      -4.362034   -1.490979    1.253412
H      -5.451682   -1.589307   -0.788629
H      -4.718263   -3.629649    0.148067
H      -2.262302   -2.978709   -1.658086
