18

C       0.104681    1.577244   -0.077295
C      -0.004384    0.060302    0.037508
O       0.621922   -0.564494   -1.086100
C       1.532164   -1.566889   -0.665971
C       1.598011   -1.470352    0.834306
C       2.505788   -2.314518    1.660339
C       0.715316   -0.542965    1.231428
C       0.442048   -0.162369    2.568727
N       0.201653    0.163568    3.654889
H       1.153531    1.887168   -0.082610
H      -0.364328    1.912266   -1.006164
H      -0.402941    2.062016    0.762298
H      -1.069756   -0.221838    0.059761
H       1.189773   -2.567203   -0.982291
H       2.514150   -1.401909   -1.135213
H       2.307573   -3.379490    1.488148
H       3.553376   -2.142163    1.385027
H       2.388370   -2.107992    2.726091
