13

C      -0.159127    1.364405    0.235817
O      -0.344259   -0.013251   -0.047857
C       0.549460   -0.502256   -1.032373
C       1.949002   -0.688877   -0.406985
O       2.960902   -0.235829   -0.865432
C       0.085190   -1.798693   -1.508742
C      -0.228848   -2.894086   -1.889090
H       0.844092    1.580296    0.629397
H      -0.320729    1.981915   -0.659555
H      -0.900554    1.628238    0.992119
H       0.650084    0.203234   -1.871382
H       1.919248   -1.273761    0.537805
H      -0.526827   -3.853152   -2.235787
