13

N       0.236761    1.268287    0.004106
C       0.055230    0.004014    0.001426
N      -1.188449   -0.565010    0.011211
C      -2.395377    0.114939    0.025141
C      -2.681709    1.462310    0.032507
N      -4.040666    1.474637    0.045695
N      -4.561422    0.241765    0.046293
N      -3.558417   -0.593652    0.033850
H       1.231613    1.477836   -0.004595
H       0.846303   -0.753624   -0.008707
H      -1.267945   -1.568816    0.008628
H      -2.054996    2.332891    0.029500
H      -4.659808    2.269105    0.054447
