21

O       0.155574    1.239963   -0.408846
C      -0.040531   -0.152302   -0.295810
C      -1.474192   -0.534251    0.125299
C      -2.528467   -0.028273   -0.907399
C      -2.782659   -1.231901   -1.827065
C      -2.785684   -2.418165   -0.853194
C      -1.659143   -2.088848    0.152018
C      -1.794456    0.053779    1.480059
O      -1.108769    0.844283    2.086380
H       0.040033    1.589005    0.484752
H       0.171211   -0.580988   -1.281898
H       0.668991   -0.604743    0.415041
H      -3.462862    0.241899   -0.397505
H      -2.161460    0.866879   -1.413470
H      -3.710214   -1.139120   -2.398826
H      -1.963738   -1.334550   -2.549215
H      -3.750057   -2.463211   -0.333517
H      -2.639348   -3.385292   -1.342117
H      -0.716213   -2.560970   -0.144779
H      -1.884633   -2.463334    1.156262
H      -2.762055   -0.293199    1.912076
