17

N      -0.183631    1.280227   -0.249573
C      -0.085663    0.067095    0.053373
O       0.965938   -0.637883    0.602838
C       0.201625   -1.895534    0.562571
C      -0.193152   -2.380135    1.951290
C      -1.340017   -1.438106    2.374251
C      -2.109028   -1.169360    1.063228
C      -1.016845   -1.126764   -0.020619
H       0.678709    1.785996   -0.038514
H       0.720727   -2.624366   -0.061657
H      -0.557419   -3.411586    1.865794
H       0.654085   -2.383649    2.642316
H      -1.972644   -1.865852    3.155614
H      -0.927592   -0.502434    2.765637
H      -2.794249   -1.997239    0.847976
H      -2.697536   -0.249101    1.089351
H      -1.363184   -1.375103   -1.023664
