17

C       0.117672    1.464193    0.276590
O       0.983991    2.263394   -0.514877
C       2.167136    1.628119   -1.009027
C       1.700669    0.520245   -1.940991
C       2.476665   -0.762283   -2.335187
O       2.789341   -1.506077   -1.158695
C       1.446379   -1.615265   -1.693793
C       0.751469   -0.384721   -1.168441
C       0.018397    0.014781   -0.142135
H       0.441945    1.479333    1.333397
H      -0.856570    1.967590    0.240922
H       2.736101    2.421272   -1.501508
H       2.772222    1.206158   -0.194059
H       1.220001    0.943848   -2.830736
H       3.087183   -0.939007   -3.212978
H       1.091831   -2.610854   -1.928794
H      -0.559309   -0.654222    0.489676
