25

C      -0.178866    1.541015    0.064151
C       0.187989    0.053473    0.106316
C       0.805578   -0.476252   -1.206279
C       2.286119   -0.053995   -1.304840
O       2.806028   -0.093513   -2.615541
C       0.639274   -2.007465   -1.310773
C      -0.797936   -2.435612   -1.619831
O       1.524369   -2.485703   -2.333950
C       1.836373   -3.860101   -2.265530
H       0.685615    2.170867   -0.166671
H      -0.940207    1.734571   -0.699120
H      -0.579761    1.872540    1.027091
H       0.895643   -0.130110    0.926896
H      -0.711434   -0.518014    0.359477
H       0.286386   -0.017863   -2.059098
H       2.393178    0.981889   -0.966868
H       2.878405   -0.676415   -0.609762
H       2.634076   -0.992590   -2.923533
H       0.960245   -2.453064   -0.353045
H      -1.102725   -2.035208   -2.591696
H      -0.894516   -3.524492   -1.652028
H      -1.496262   -2.072660   -0.861525
H       2.241986   -4.131730   -1.279344
H       0.966285   -4.498025   -2.471254
H       2.596052   -4.056318   -3.026048
