15

O      -0.210083    1.436612    0.390356
C      -0.036513    0.049913    0.196176
C      -1.365393   -0.650291   -0.083755
O      -2.236671   -0.635402    1.032377
C      -3.277857    0.294864    0.763927
C      -3.371694    0.241861   -0.758321
O      -2.012060    0.051721   -1.140788
H      -0.688640    1.745402   -0.388473
H       0.656132   -0.169020   -0.633013
H       0.391405   -0.361348    1.114965
H      -1.197750   -1.703092   -0.361324
H      -4.184811   -0.039488    1.274065
H      -3.005868    1.298644    1.115346
H      -3.990911   -0.602196   -1.093256
H      -3.736140    1.162838   -1.219707
