17

O       0.022410    0.070402   -0.668858
C      -0.035590    1.151822   -0.163525
C      -1.295596    1.977805    0.137445
C      -0.785986    3.237039    0.831423
C      -0.738098    3.321205    2.369485
C      -0.085025    2.111197    2.966666
C       0.794890    3.163263    2.355659
C       0.764418    3.084903    0.828102
O       1.085753    1.829574    0.228432
H      -1.800021    2.181356   -0.811173
H      -1.975664    1.371547    0.741180
H      -1.134255    4.160740    0.370018
H      -1.337892    4.000339    2.962090
H      -0.068738    2.090219    4.051297
H      -0.178544    1.126695    2.517905
H       1.546717    3.688235    2.930769
H       1.334038    3.866006    0.323176
