18

C      -0.168109    1.589818    0.127021
C       0.072970    0.067772   -0.002061
C       0.827300   -0.285032   -1.285177
C       0.823744   -0.411692    1.227691
O       2.006641   -0.666159    1.248388
C       0.000068   -0.572569    2.535016
C       0.787358   -0.935471    3.769800
O      -1.199877   -0.422155    2.517114
H       0.782247    2.133471    0.153240
H      -0.737532    1.946742   -0.736067
H      -0.735509    1.830430    1.029133
H      -0.909581   -0.416579    0.015508
H       1.820867    0.171404   -1.289634
H       0.961689   -1.365991   -1.384481
H       0.276388    0.073382   -2.159705
H       1.347823   -1.859561    3.599174
H       1.534932   -0.162740    3.977331
H       0.111334   -1.046773    4.617672
