17

C      -0.132620    1.662786    0.329521
C       0.103340    0.176473    0.075215
C       0.860652   -0.150832   -1.223522
C       1.699227   -1.369106   -0.827842
C       1.843168   -1.245829    0.684163
O       2.601350   -1.806769    1.416156
O       0.919543   -0.346371    1.149056
C      -1.242053   -0.556164    0.162796
O      -1.898175   -0.888863   -0.787908
H       0.828352    2.179378    0.401258
H      -0.710868    2.095979   -0.491831
H      -0.678705    1.822294    1.264023
H       0.156945   -0.340977   -2.034708
H       1.499454    0.691438   -1.502973
H       1.181398   -2.311496   -1.039287
H       2.682597   -1.425059   -1.295742
H      -1.570387   -0.745819    1.208009
