22

C      -0.088198    1.736469   -0.083168
C      -0.078819    0.212226    0.003975
N       0.534958   -0.388622   -1.165684
C      -0.177692   -0.344056   -2.457816
C       0.338109   -1.773339   -2.770915
C       1.536142   -1.843899   -3.710404
C       0.648748   -1.850716   -1.231318
C       1.985867   -2.415493   -0.805242
O       2.199603   -3.588975   -0.634900
H       0.929990    2.122361   -0.186620
H      -0.668955    2.078901   -0.946197
H      -0.538628    2.171465    0.813870
H       0.495473   -0.105847    0.883296
H      -1.112686   -0.159642    0.151014
H      -1.274047   -0.309326   -2.348409
H       0.135513    0.461176   -3.131847
H      -0.433593   -2.477171   -3.086342
H       2.306075   -1.118295   -3.428894
H       1.988396   -2.840641   -3.704765
H       1.226862   -1.621874   -4.737158
H      -0.149387   -2.397288   -0.702640
H       2.781960   -1.645035   -0.684806
