18

C      -0.126020    1.514347    0.076452
C       1.419682    1.309456    0.095936
C       1.166334    0.151802    1.111770
C       0.082456   -0.029264    0.003309
C       1.192214    0.274561   -1.035793
C       0.894126    0.673661   -2.501152
N       1.783700   -0.158074   -3.327931
C       2.435841   -0.866352   -2.504911
O       2.217291   -0.739614   -1.176763
H      -0.560499    1.883941    1.007250
H      -0.564679    2.012506   -0.790499
H       2.191997    2.078721    0.134517
H       1.932315   -0.618471    1.186165
H       0.793885    0.455941    2.093058
H      -0.684919   -0.801422   -0.064764
H      -0.149155    0.487239   -2.779177
H       1.095979    1.733338   -2.693077
H       3.189482   -1.601203   -2.766726
