21

C      -0.000557    1.573315   -0.010171
C       0.113547    0.065954    0.088547
C       1.362901   -0.731277   -0.204838
C       2.606335   -0.030564    0.284246
C       3.253731   -0.818947    1.405594
C       2.021518    0.004778    1.691064
O       2.050870    1.092743    2.554597
C       0.761443   -0.697839    1.223061
C       0.060684   -1.785200    1.992395
H       0.885021    2.076787    0.381479
H      -0.139638    1.883541   -1.052231
H      -0.863305    1.932961    0.561313
H      -0.777834   -0.450932   -0.268401
H       1.356078   -1.582696   -0.877750
H       3.135684    0.767727   -0.222715
H       3.224346   -1.905832    1.404453
H       4.173270   -0.388489    1.792141
H       2.167675    0.764217    3.452290
H      -0.505994   -1.371924    2.836109
H      -0.648964   -2.329294    1.360657
H       0.773455   -2.513501    2.396955
