18

O      -0.243695    1.285048   -0.326035
C      -0.206516   -0.079917   -0.088088
C      -0.386024   -0.590121    1.348561
C      -0.496989    0.375311    2.400097
N      -0.557787    1.163382    3.245845
C      -1.498952   -0.725804    0.294513
C      -2.763341    0.061709    0.395705
C      -3.904057   -0.243168   -0.545618
C      -4.017318   -0.597687    0.915126
H       0.524056    1.697512    0.085562
H       0.493081   -0.645745   -0.703190
H       0.147497   -1.493199    1.625832
H      -1.630094   -1.747378   -0.052683
H      -2.620469    1.104250    0.652405
H      -4.483885    0.590011   -0.925973
H      -3.775527   -1.053480   -1.255939
H      -3.964128   -1.646765    1.187206
H      -4.676243   -0.010042    1.543867
