14

N       0.033358    1.355768    0.149865
C      -0.004665   -0.018135    0.050932
C      -1.133823   -0.755866    0.020487
O      -1.131539   -2.138369   -0.019450
C       0.042700   -2.745157   -0.023043
F      -0.113397   -4.050826   -0.051795
C       1.241050   -2.137375   -0.004690
C       1.313256   -0.690711    0.016396
N       2.362053    0.057072   -0.002641
H       0.953276    1.715509   -0.077394
H      -0.739155    1.871746   -0.239951
H      -2.143469   -0.374019    0.032858
H       2.138892   -2.741058   -0.020046
H       3.215258   -0.500715   -0.034602
