22

C       0.140999    1.603916   -0.292894
C      -0.003598    0.107520    0.030076
C       0.515779   -0.750759   -1.131673
C       0.692258   -0.301498    1.345476
O       2.096825   -0.023801    1.337622
C       0.048310    0.292185    2.603218
N       0.752150   -0.172186    3.784102
C       0.123335   -0.574920    4.916404
O      -1.076548   -0.546970    5.099502
H       1.188014    1.875742   -0.475461
H      -0.408248    1.847987   -1.206972
H      -0.246240    2.247667    0.502413
H      -1.072430   -0.105895    0.167847
H       1.597645   -0.629078   -1.242513
H       0.315399   -1.813387   -0.960467
H       0.039731   -0.466408   -2.075151
H       0.640211   -1.393210    1.433769
H       2.208393    0.923784    1.199947
H       0.062622    1.390693    2.556774
H      -0.995983   -0.015681    2.699079
H       1.753055   -0.267241    3.702961
H       0.842326   -0.940397    5.676640
