18

C      -0.132787    1.455939    0.656816
C       0.091143    0.020510    0.237670
C       0.389343   -0.360085   -1.192471
C       0.527497    0.656007   -2.198261
C       0.646862    1.487733   -3.059957
N       1.393131   -0.530553   -0.120966
C       2.575295    0.337223   -0.110233
C       3.693989   -0.301060   -0.798494
C       4.621791   -0.808393   -1.367811
H       0.251372    1.629769    1.667852
H       0.334323    2.169901   -0.023511
H      -1.206612    1.667978    0.671775
H      -0.511305   -0.695336    0.796512
H      -0.000046   -1.304700   -1.566103
H       0.751675    2.215446   -3.826299
H       2.401745    1.324338   -0.562413
H       2.841660    0.505629    0.940482
H       5.439816   -1.260251   -1.871642
