20

C      -0.224002    1.344083   -0.329834
O      -0.092450   -0.046608   -0.146907
C       0.777801   -0.647157   -1.078476
C       0.816959   -2.134922   -0.796455
C      -0.497799   -2.907762   -1.120967
N       0.250362   -3.653427   -2.137365
C       1.531567   -3.000147   -1.878388
C      -0.065448   -4.629810   -3.012504
O       0.720661   -5.143222   -3.783850
H       0.740155    1.863622   -0.214654
H      -0.628277    1.588403   -1.324721
H      -0.915602    1.709923    0.432575
H       0.427241   -0.465885   -2.110572
H       1.791825   -0.217185   -1.002146
H       1.177617   -2.307446    0.218668
H      -0.889159   -3.527101   -0.307067
H      -1.307987   -2.284986   -1.515457
H       1.928692   -2.450538   -2.739677
H       2.306421   -3.680295   -1.511170
H      -1.137141   -4.912334   -2.947949
