11

N      -0.029177    1.116102   -0.181766
C      -0.277241   -0.092615    0.074048
O      -0.456117   -0.967314   -0.942064
C      -0.751170   -2.313374   -0.562612
C      -2.096303   -2.480237   -0.019839
C      -3.200826   -2.609620    0.434169
H       0.090415    1.637780    0.684027
H      -0.367062   -0.548959    1.068705
H      -0.634530   -2.897331   -1.479497
H      -0.005043   -2.678548    0.156644
H      -4.180139   -2.726325    0.829040
