18

C      -0.112819    1.473765   -0.006117
C       0.082464   -0.030144    0.069329
C       1.103617   -0.721492   -0.875601
C       1.552417   -1.614354    0.309887
C       0.863684   -0.624696    1.303380
O       1.733556    0.264898    1.973900
C       0.002646   -1.251736    2.376791
O      -0.870077   -2.050204    2.145595
H       0.832278    2.010562    0.127178
H      -0.522921    1.758160   -0.981047
H      -0.803116    1.828179    0.766188
H      -0.878807   -0.550201    0.014349
H       0.704338   -1.225610   -1.758065
H       1.891167   -0.034315   -1.203669
H       1.049337   -2.583769    0.317785
H       2.623264   -1.761387    0.473824
H       2.389835    0.593091    1.351880
H       0.240810   -0.914054    3.408924
