18

C       0.084599    1.497918   -0.102147
C      -0.034259    0.014856   -0.098429
C      -1.050798   -0.842757   -0.377791
C      -0.481435   -2.137081   -0.174450
N       0.776172   -2.049202    0.196861
O       1.062652   -0.682121    0.245859
C      -1.103240   -3.464627   -0.324083
C      -2.561194   -3.675260    0.033609
C      -2.136552   -3.712154   -1.405174
H       0.357433    1.871383    0.890329
H       0.860202    1.827006   -0.801413
H      -0.863612    1.952028   -0.395648
H      -2.053259   -0.590906   -0.682256
H      -0.423019   -4.278881   -0.102353
H      -2.826068   -4.606020    0.522208
H      -3.119617   -2.813493    0.382242
H      -2.404420   -2.875639   -2.041185
H      -2.106872   -4.668502   -1.914797
