16

O      -0.494638    0.492931    0.689669
C       0.053352    1.163071   -0.153620
C       1.300154    1.963773    0.013767
C       1.583104    2.860296    1.176529
C       1.051921    2.320451    2.510067
C       1.917725    1.061008    2.191699
N       2.447563    1.663928    0.913172
C       1.566071    3.089632    3.700328
O       0.886872    3.463550    4.619953
H      -0.371034    1.239708   -1.179219
H       1.671795    2.354351   -0.930717
H       1.928051    3.875454    1.000864
H      -0.024974    2.177420    2.594381
H       2.759543    0.928083    2.874980
H       1.374657    0.126188    2.073626
H       2.664491    3.286071    3.676455
