14

C      -0.015979    1.557671    0.023225
C      -0.005590    0.055224   -0.004808
C      -0.144242   -0.685785   -1.125414
F      -0.304346   -0.175340   -2.322550
O      -0.138094   -2.000322   -1.173390
C       0.024361   -2.751456    0.024918
N       0.013410   -4.000932   -0.146892
N       0.171410   -2.049038    1.206046
C       0.154800   -0.754287    1.171038
H       0.922479    1.955246    0.425043
H      -0.149421    1.964835   -0.980497
H      -0.828666    1.938936    0.651244
H       0.135274   -4.448942    0.759449
H       0.274305   -0.242105    2.126927
