18

O       0.168927    1.462997   -0.108354
C       0.087977    0.065407   -0.001673
C       0.206541   -0.552794    1.484580
C      -1.327744   -0.612792    1.419879
N      -2.681256   -1.356356    1.503746
C      -2.818301   -0.229769    0.423720
C      -2.196566    0.702199    1.474712
O      -2.905498    0.983808    2.633918
C      -1.363150   -0.572588   -0.079851
H       1.067423    1.731181    0.111366
H       0.767967   -0.420024   -0.714265
H       0.708315   -1.524134    1.457834
H       0.656813    0.078154    2.256835
H      -2.589564   -2.262025    1.033766
H      -3.757528   -0.139597   -0.129954
H      -1.725788    1.610548    1.112665
H      -3.298722    0.138542    2.899161
H      -1.304486   -1.546971   -0.573243
