12

O      -0.002386   -0.042721    0.004231
C       0.021408    1.160555    0.009448
C      -1.189935    2.104953    0.031107
C      -0.792856    3.387343    0.031364
C       0.694728    3.392267    0.010216
C       1.154863    2.120195   -0.002216
O       2.512975    2.151693   -0.021425
C       2.785012    3.484474   -0.019139
N       1.746367    4.276776   -0.000661
H      -2.198769    1.718155    0.043714
H      -1.418963    4.269128    0.044372
H       3.828199    3.758737   -0.032729
