17

N      -0.045372   -1.202911    0.027436
C      -0.022635   -0.048354    0.057449
C      -0.006258    1.412464    0.056562
C       1.421819    1.997333    0.079239
C       1.404335    3.518819   -0.116369
C       2.799657    4.058696    0.172504
O       3.257032    3.652513    1.471861
C       2.849577    2.432506    1.887799
N       2.060207    1.613326    1.334495
H      -0.539098    1.763955   -0.834474
H      -0.556039    1.773653    0.932547
H       1.982300    1.533755   -0.743738
H       1.103241    3.793035   -1.132697
H       0.686153    3.973267    0.576942
H       3.518684    3.696254   -0.573045
H       2.828116    5.150380    0.174499
H       3.307776    2.198153    2.846750
