19

O      -0.074077    1.351449   -0.072869
C       0.066793   -0.046065    0.049442
C       0.546178   -0.527231    1.451069
C      -0.762558   -1.197240    1.859645
O      -1.793294   -0.194284    1.384237
C      -1.334438   -0.721818    0.049230
C      -1.790446   -1.317255   -1.302046
C      -0.899197   -2.572093   -0.830287
C      -1.211318   -2.072787    0.633298
H      -0.739521    1.593437    0.586217
H       0.717797   -0.358556   -0.769450
H       1.388014   -1.224822    1.418750
H       0.808965    0.318308    2.090188
H      -0.933578   -1.499738    2.892887
H      -2.845755   -1.594054   -1.334908
H      -1.509877   -0.790103   -2.217058
H      -1.274880   -3.562515   -1.091597
H       0.138032   -2.479971   -1.153808
H      -2.215177   -2.430800    0.876035
