23

C       0.027345    1.461834   -0.149196
C      -0.003409   -0.058521    0.022846
C      -1.428616   -0.625271    0.059862
C      -1.468709   -2.121959    0.152102
C      -0.799567   -3.084961    1.170767
C      -1.372648   -3.918978   -0.003705
C      -1.172397   -5.364336   -0.336549
C      -2.679265   -3.086036    0.063999
O      -0.822368   -2.903645   -0.942948
H       1.054673    1.838506   -0.169906
H      -0.456727    1.764682   -1.084365
H      -0.495762    1.966770    0.670980
H       0.543418   -0.541779   -0.794193
H       0.519234   -0.335483    0.946991
H      -1.981698   -0.210354    0.913193
H      -1.974354   -0.322454   -0.843521
H       0.289788   -3.038373    1.213029
H      -1.261457   -3.194861    2.156246
H      -1.621809   -5.997448    0.435081
H      -1.637800   -5.605907   -1.297015
H      -0.105495   -5.599575   -0.399179
H      -3.318058   -3.196333    0.945061
H      -3.242944   -3.034951   -0.869447
