20

C      -0.141371    1.487986    0.089885
C       0.064949   -0.004538   -0.018868
O      -0.236392   -0.743455    1.177062
C       1.131223   -0.680451    0.750318
C       1.734053   -1.971687    0.227057
C       1.689299   -2.052057   -1.315507
N       0.444584   -1.663981   -1.973464
C      -0.834312   -2.037215   -1.381155
C      -0.368674   -0.620742   -1.329200
H       0.405123    2.015899   -0.698994
H      -1.203163    1.738363   -0.013257
H       0.202410    1.852601    1.060662
H       1.762010   -0.070495    1.397321
H       2.778049   -2.055662    0.545904
H       1.200972   -2.813884    0.680316
H       2.467941   -1.396377   -1.725054
H       1.931726   -3.070115   -1.638340
H      -1.605140   -2.327816   -2.089984
H      -0.855620   -2.567748   -0.433832
H      -0.792143    0.093709   -2.032070
