20

C       0.178547    1.461405    0.051203
C       0.035026   -0.049371   -0.017859
O       0.672204   -0.510172   -1.192864
C       0.601668   -1.908048   -1.359487
C       1.345850   -2.273715   -2.628291
C       2.883509   -2.166912   -2.549587
O       3.031521   -3.602054   -2.629175
C       1.615329   -3.780895   -2.827406
H       1.234415    1.745643    0.074039
H      -0.283525    1.931064   -0.821754
H      -0.305608    1.849722    0.952172
H       0.487725   -0.522914    0.869912
H      -1.030020   -0.337601   -0.026311
H       1.054790   -2.425472   -0.495023
H      -0.449471   -2.241590   -1.420796
H       0.893711   -1.763165   -3.480955
H       3.364002   -1.659261   -3.395144
H       3.283197   -1.758251   -1.613963
H       1.174701   -4.452449   -2.078243
H       1.384819   -4.169904   -3.827528
