19

O      -0.144932    1.454846   -0.063343
C      -0.026339    0.061158    0.002235
C      -0.502074   -0.679931    1.246024
C      -1.297799   -0.698716   -0.019857
C      -2.744685   -0.249215   -0.222753
C      -2.805752    0.055511   -1.734992
C      -2.083505   -1.243396   -2.228766
C      -1.837963   -1.872470   -0.839034
O      -3.129487   -1.664738   -0.182220
H       0.549946    1.840856    0.480430
H       0.833219   -0.355089   -0.526125
H       0.036574   -1.571890    1.551595
H      -0.881164   -0.072904    2.062596
H      -3.282445    0.385233    0.480383
H      -3.836820    0.124750   -2.087474
H      -2.273840    0.973881   -1.992500
H      -2.725152   -1.878209   -2.843233
H      -1.157289   -1.044352   -2.774533
H      -1.453833   -2.890030   -0.764961
