18

O       0.033368    0.028553   -1.016211
C       0.026349    1.174386   -0.638683
N       1.026028    1.774907    0.125501
C       2.126152    0.968950    0.473462
C       3.284203    1.319897    1.035969
C       3.773623    2.675169    1.458568
C       2.723361    3.549172    2.171022
C       1.516237    3.882636    1.343193
C       0.828564    3.114737    0.495360
H      -0.792659    1.880114   -0.862508
H       1.940631   -0.059961    0.193500
H       3.971656    0.494108    1.195791
H       4.633018    2.544868    2.125371
H       4.151437    3.225466    0.586824
H       2.416419    3.042350    3.095362
H       3.198733    4.484536    2.486980
H       1.132004    4.893411    1.444719
H      -0.037417    3.539220   -0.002328
