16

C      -0.039120    1.308527    0.546151
O      -0.056554   -0.094308    0.412482
C      -1.138394   -0.537191   -0.382649
C      -1.117663   -1.989509   -0.494231
C      -1.105874   -3.187017   -0.612161
C      -1.132579   -4.638321   -0.707475
C      -2.154211   -5.268448    0.242806
O      -2.822797   -6.224616   -0.039282
H       0.818859    1.561931    1.172380
H       0.068937    1.811670   -0.428010
H      -0.955962    1.685631    1.026814
H      -2.097911   -0.210492    0.055761
H      -1.087400   -0.087421   -1.390012
H      -1.345880   -4.987871   -1.722903
H      -0.148909   -5.047578   -0.429704
H      -2.219596   -4.772263    1.235253
