20

C       0.277463    1.467969   -0.186416
C       0.024344   -0.004388    0.048440
O       0.833944   -0.875436   -0.803493
C       1.256388   -1.686671    0.312541
C       2.628990   -1.273334    0.889043
N       1.979536   -0.228933    1.752800
C       1.621421   -0.703670    3.132210
C       0.130974   -0.875964    2.724840
C       0.609731   -0.678674    1.290612
H       1.309867    1.719166    0.067482
H       0.090359    1.720743   -1.234475
H      -0.393836    2.072392    0.433728
H      -1.040218   -0.250102   -0.087552
H       1.008111   -2.744060    0.182031
H       3.136805   -2.056543    1.465340
H       3.323498   -0.855873    0.154749
H       2.115223   -1.643157    3.408727
H       1.831071    0.039826    3.905929
H      -0.355974   -1.823852    2.963490
H      -0.506000   -0.057584    3.071670
