11

O       0.013571   -0.042572   -0.001158
C       0.001357    1.160851    0.008569
C       1.212616    2.002410    0.002462
C       1.367462    3.356966    0.011670
C       2.778591    3.522011   -0.002083
N       3.405111    2.355763   -0.017831
O       2.423641    1.407464   -0.015080
C       3.514675    4.741642   -0.000168
N       4.071950    5.754160    0.002010
H      -0.936621    1.752600    0.023198
H       0.608374    4.120767    0.025820
