21

C      -0.054554    1.479724    0.015136
C      -0.086618   -0.012382   -0.034804
C      -0.086611   -0.825289   -1.103461
C       0.018213   -2.259683   -0.610442
C       1.459161   -2.438986   -0.036401
C       1.453327   -1.496228    1.211016
C       0.008057   -0.905798    1.198687
C      -0.790109   -2.147327    0.712806
O      -2.179257   -1.989618    0.584679
H       0.862552    1.840065    0.499459
H      -0.100863    1.918294   -0.985903
H      -0.890268    1.878537    0.603843
H      -0.050119   -0.522251   -2.143718
H      -0.298392   -3.038017   -1.305398
H       1.633223   -3.479724    0.254086
H       2.223731   -2.168327   -0.767777
H       1.630104   -2.057650    2.133346
H       2.213324   -0.713151    1.153951
H      -0.312850   -0.459077    2.141133
H      -0.648154   -3.014269    1.366035
H      -2.315561   -1.253911   -0.026008
