19

C       0.139880    1.554255   -0.057714
N      -0.156628    0.136002    0.128353
C       0.648724   -0.514835    1.154689
C       0.156786   -1.952196    1.426533
C      -1.230793   -2.003016    2.086780
C      -1.570669   -3.403742    2.558047
O      -2.579471   -3.994208    2.278336
C       2.057904   -0.556717    0.719123
N       3.168342   -0.596944    0.403167
H       1.157086    1.667294   -0.444351
H      -0.548527    1.967087   -0.799150
H       0.059187    2.153569    0.865753
H      -1.134499    0.020220    0.366925
H       0.643699    0.037883    2.115929
H       0.147326   -2.499086    0.478703
H       0.886631   -2.443765    2.079078
H      -1.233064   -1.354033    2.975771
H      -2.032934   -1.674950    1.419980
H      -0.793150   -3.866922    3.209868
