18

C      -0.096516   -1.162363   -0.259604
C      -0.050134    0.025230   -0.082955
C       0.031684    1.465154    0.150499
C       1.449002    1.974813    0.130004
C       2.602122    1.602295    1.062121
C       3.367816    2.779561    0.398899
C       3.495447    2.297705   -1.055019
N       2.005818    2.397081   -1.207125
C       1.968549    3.350900   -0.057314
H      -0.147457   -2.209620   -0.426232
H      -0.543048    2.000739   -0.613910
H      -0.427775    1.703017    1.119208
H       2.338465    1.817559    2.101321
H       3.041434    0.602017    0.988080
H       4.164033    3.302384    0.925292
H       3.956184    3.030527   -1.722394
H       3.922012    1.304503   -1.238708
H       1.506931    4.329548   -0.088712
