19

C      -0.197744    1.544937   -0.033615
C       0.040784    0.046274    0.009551
O       0.905730   -0.374515   -1.063440
C       1.901534   -1.194073   -0.402911
O       1.197637   -1.795658    0.655707
C       0.801570   -0.540010    1.251146
C       2.130970    0.185936    1.365482
C       2.847762   -0.222576    0.313185
C       4.171378    0.211092   -0.212558
H       0.740676    2.096068    0.063063
H      -0.660668    1.822869   -0.984769
H      -0.874079    1.850369    0.772546
H      -0.909242   -0.494935   -0.083561
H       2.303298   -1.921740   -1.106698
H       0.204447   -0.695490    2.147503
H       2.367008    0.963232    2.079368
H       4.640447    0.953132    0.438949
H       4.858884   -0.637703   -0.315940
H       4.064156    0.653089   -1.211094
