21

C      -0.115341    1.542322   -0.093788
C      -0.025946    0.016674   -0.021286
C      -1.442475   -0.530401    0.319839
C      -1.329799   -0.695859    1.845272
C      -0.063197   -0.741882    2.287912
C       0.819223   -0.684117    1.082788
C       2.110795   -0.135014    0.410353
C       1.186963   -0.670347   -0.763001
C       0.976484   -1.919493    0.115731
H       0.842065    2.040953   -0.252124
H      -0.765362    1.822864   -0.931010
H      -0.565545    1.952099    0.817791
H      -2.239012    0.165730    0.037722
H      -1.695089   -1.489057   -0.146884
H      -2.207454   -0.810975    2.473354
H       0.241557   -0.891025    3.316802
H       2.307593    0.934056    0.471204
H       3.028379   -0.706768    0.572183
H       1.429014   -0.645544   -1.827993
H       1.854633   -2.546237    0.289630
H       0.093979   -2.531043   -0.069954
