13

C      -0.022953    1.486077    0.047573
C      -0.053935   -0.016997    0.013825
O      -0.114463   -0.715191    1.023280
C      -0.011828   -0.711451   -1.262818
C      -0.033370   -2.072317   -1.438895
O      -0.094510   -3.032758   -0.535499
N       0.021691   -2.313235   -2.786633
N       0.073372   -1.212185   -3.410649
O       0.055056   -0.148907   -2.485003
H       0.887281    1.855217   -0.437295
H      -0.868663    1.893295   -0.517070
H      -0.062387    1.830645    1.080926
H      -0.123156   -2.571467    0.328974
