14

N      -0.011022    1.360767    0.109089
C      -0.013982    0.002119    0.041137
C      -1.208050   -0.748823    0.033073
C      -1.079916   -2.124687   -0.001922
C      -2.325750   -2.959695   -0.014763
O      -2.352076   -4.160405   -0.046652
N       0.110813   -2.750691   -0.025096
C       1.163937   -1.943581   -0.013934
N       1.177686   -0.608368    0.013992
H       0.870953    1.818547   -0.053837
H      -0.848090    1.875873   -0.099908
H      -2.182774   -0.272229    0.055584
H      -3.261887   -2.355217    0.008285
H       2.140710   -2.422383   -0.033338
