12

N      -0.365003    1.316864    0.413385
C      -0.045701    0.011907    0.123014
N      -0.913193   -0.827322   -0.459266
N      -0.211004   -1.977889   -0.482383
C       1.008729   -1.801846    0.058191
C       1.991234   -2.883545    0.162502
O       1.770624   -4.007884   -0.231003
N       1.149419   -0.540233    0.455139
H       0.436730    1.922775    0.499365
H      -1.106959    1.701631   -0.151576
H      -0.598599   -2.824196   -0.868433
H       2.948242   -2.584641    0.630161
