18

C      -0.238919    1.365382   -0.135322
C       0.083285   -0.114936   -0.008501
N       1.238227   -0.577803   -0.802252
C       1.973449   -1.058379    0.240082
O       3.045494   -1.589971    0.336030
C       0.850462   -0.623285    1.257871
C       1.325781    0.371181    2.315202
C       0.230372   -1.847161    1.899514
O      -0.780765   -2.389099    1.531275
H       0.644125    1.990213    0.023005
H      -0.631908    1.583602   -1.133915
H      -1.007462    1.653227    0.589058
H      -0.809061   -0.721535   -0.186601
H       1.393591   -0.637663   -1.798292
H       1.892702    1.191310    1.868953
H       0.485489    0.796515    2.873564
H       1.986876   -0.133408    3.026728
H       0.809979   -2.239015    2.764148
