15

O       0.020562    1.436730   -0.162596
C       0.015886    0.084120    0.044469
C      -0.147469   -0.867807   -1.116503
C      -1.131001   -0.943597    0.038308
N      -0.481644   -1.549483    1.207439
N      -0.212841   -2.783757    1.679689
C       1.035471   -2.647692    2.139984
C       1.623260   -1.383942    1.834620
C       0.593465   -0.706448    1.217066
H      -0.291236    1.869353    0.641063
H      -0.544534   -0.407264   -2.018021
H       0.560821   -1.673284   -1.282145
H      -2.203379   -0.827273   -0.034518
H       1.484790   -3.457448    2.699311
H       2.623983   -1.055621    2.062045
