16

O      -0.440708    1.285200    0.809688
N      -0.463204   -0.099533    0.911132
C      -1.433699   -0.640144    0.249627
C      -2.378745    0.108277   -0.510744
C      -3.199029    0.693291   -1.169111
C      -1.596425   -2.113221    0.302443
C      -0.377012   -3.033473    0.374702
C      -1.230374   -2.870910    1.590077
O      -0.796492   -2.201870    2.717039
H       0.343211    1.522066    1.318147
H      -3.915014    1.225733   -1.745679
H      -2.453159   -2.470862   -0.254999
H      -0.417652   -3.958661   -0.190322
H       0.587448   -2.536584    0.382735
H      -1.894723   -3.685402    1.861193
H      -0.399446   -1.363971    2.422186
