19

O       0.038647    1.318771   -0.065865
C       0.026529   -0.074436    0.057852
C      -0.572736   -0.709843    1.286499
C      -1.316252   -0.732520   -0.030568
C      -2.590671    0.090288   -0.246593
O      -3.265305   -0.548566   -1.327570
C      -3.008163   -1.938188   -1.167638
C      -1.504673   -2.010392   -0.864252
O      -0.720758   -2.025197   -2.047786
H       0.731256    1.664141    0.506692
H       0.851487   -0.588906   -0.432696
H      -0.140115   -1.632119    1.662352
H      -0.953928   -0.037965    2.050677
H      -3.223667    0.080812    0.655495
H      -2.390519    1.126152   -0.526005
H      -3.596815   -2.354914   -0.332752
H      -3.275309   -2.453955   -2.092331
H      -1.228102   -2.916851   -0.319731
H      -0.966582   -1.242858   -2.556167
