25

C       0.534255    1.184021   -0.328624
C       0.178103   -0.287244   -0.100536
C      -1.325128   -0.515034    0.083724
O      -2.000820   -0.216723   -1.139227
C      -2.945299    0.828777   -1.073548
C      -1.691416   -1.958589    0.520772
C      -3.204316   -2.073948    0.750777
C      -1.226852   -3.002694   -0.502587
O      -1.004024   -2.131344    1.767184
H       1.612637    1.310213   -0.465879
H       0.037072    1.572565   -1.222503
H       0.234611    1.804782    0.523709
H       0.518488   -0.878139   -0.958174
H       0.692132   -0.673724    0.784080
H      -1.685006    0.152318    0.880689
H      -3.774095    0.600481   -0.387601
H      -2.488503    1.777977   -0.758605
H      -3.352929    0.955871   -2.080532
H      -3.758938   -1.900134   -0.174678
H      -3.457765   -3.078663    1.109367
H      -3.534038   -1.353822    1.505714
H      -0.136480   -3.035685   -0.559677
H      -1.581537   -4.000230   -0.217825
H      -1.624406   -2.770657   -1.494094
H      -1.190003   -3.021606    2.082950
