13

N       0.022617    1.307297    0.006948
C      -0.031758   -0.030204    0.000117
C      -1.117491   -0.853568    0.001339
C      -2.464007   -0.433773    0.010486
N      -3.547014   -0.020096    0.018256
C      -0.654415   -2.251793   -0.008455
O      -1.267089   -3.275802   -0.010796
O       0.734332   -2.226952   -0.015508
C       1.205063   -0.892977   -0.010849
H       0.897824    1.800756    0.004954
H      -0.825425    1.851216    0.014133
H       1.817422   -0.709765   -0.903173
H       1.826620   -0.719229    0.876995
