17

O      -0.075351    1.368714   -0.299633
C       0.032554    0.036786    0.165499
C      -1.314508   -0.658418    0.093444
O      -1.848890   -0.637658   -1.269282
C      -2.116105   -2.050594   -1.204215
C      -0.828490   -2.813843   -1.068036
C      -1.436274   -2.177552    0.159882
C      -3.337863   -2.552627   -1.724634
C      -4.369517   -2.977657   -2.174267
H      -0.470258    1.317430   -1.178507
H       0.784443   -0.530900   -0.402392
H       0.368459    0.086882    1.207295
H      -2.030220   -0.158339    0.756610
H      -0.928517   -3.893321   -1.105520
H       0.064856   -2.413656   -1.536716
H      -1.749454   -2.748942    1.022260
H      -5.281973   -3.350208   -2.569765
