18

C      -0.101204    1.579110   -0.050244
C      -0.006732    0.051479    0.043188
N       0.745679   -0.528769   -1.060791
C       1.998721   -0.998672   -0.763245
O       2.800697   -1.437354   -1.555711
C       2.177335   -0.841079    0.751281
C       0.796513   -0.460261    1.251329
C       0.465604   -0.125953    2.636972
O       0.129484   -1.405950    2.092253
H       0.892808    2.036593   -0.021995
H      -0.582818    1.877163   -0.987169
H      -0.695320    1.984878    0.774024
H      -1.012788   -0.380336    0.095099
H       0.452527   -0.455870   -2.022723
H       2.533930   -1.767284    1.205132
H       2.924874   -0.062212    0.936006
H       1.251037   -0.127718    3.392094
H      -0.380561    0.524295    2.857166
