25

C       1.981144    2.437091   -0.580566
C       0.986534    1.295738   -0.352248
O      -0.360845    1.775303   -0.403071
C       1.201531    0.157814   -1.330457
C       2.090164   -1.045209   -1.051518
C       2.884666   -1.221193    0.226212
C       0.585237   -1.217017   -1.151004
C      -0.249871   -1.520248    0.080758
C       0.052868   -1.892815   -2.403202
H       3.011945    2.096540   -0.438390
H       1.896395    2.825680   -1.603142
H       1.782236    3.258145    0.113610
H       1.097787    0.940958    0.676353
H      -0.543394    2.023181   -1.316164
H       1.231640    0.513643   -2.361940
H       2.633922   -1.400439   -1.924929
H       2.344920   -0.891223    1.116415
H       3.143592   -2.275308    0.376586
H       3.823206   -0.656679    0.184058
H       0.149198   -1.075328    0.993730
H      -1.267295   -1.136044   -0.045573
H      -0.315266   -2.602769    0.242520
H       0.049019   -2.984146   -2.293159
H      -0.977124   -1.579275   -2.612843
H       0.660820   -1.649340   -3.280664
