21

O       0.115626    1.524503   -0.390792
C       0.142019    0.107054   -0.364946
C      -1.203938   -0.356534    0.202735
C      -1.307604   -1.807867    0.283852
C      -1.364255   -3.011173    0.338270
C      -1.470704   -4.453194    0.426491
C      -1.643528   -5.126802    1.828308
C      -2.621852   -6.139620    1.177885
C      -2.802109   -5.153043   -0.005401
H       0.954146    1.835488   -0.743397
H       0.278979   -0.316788   -1.370983
H       0.956149   -0.274189    0.269384
H      -1.333521    0.095601    1.193935
H      -2.002821    0.052321   -0.428428
H      -0.630320   -4.923006   -0.097776
H      -0.742154   -5.510852    2.310947
H      -2.155275   -4.451848    2.518833
H      -2.110108   -7.055408    0.867804
H      -3.513014   -6.416095    1.744838
H      -3.653829   -4.485554    0.146883
H      -2.846055   -5.558335   -1.018662
