13

C       0.008621    1.395232    0.058824
N      -0.021016   -0.054249   -0.013402
C      -0.058311   -0.801223   -1.171298
C       0.006775   -2.110485   -0.738550
O       0.012150   -3.373045   -1.118035
N       0.103122   -4.129111    0.260045
N       0.131827   -3.291694    1.161453
C       0.079947   -2.012038    0.659400
N       0.066290   -0.763085    1.122889
H       1.033924    1.768773   -0.025601
H      -0.595841    1.810928   -0.749648
H      -0.405779    1.694036    1.021090
H      -0.127885   -0.336205   -2.139100
