21

C      -0.099580    1.403840    0.053826
C       0.084227   -0.096136    0.049505
O       0.282077   -0.726758    1.067512
C       0.018521   -0.847632   -1.283449
O       0.272167   -2.209017   -1.067303
C      -1.338535   -0.646605   -1.986613
C      -1.403739   -1.388684   -3.323843
C      -2.763515   -1.264470   -3.997961
O      -2.701552   -1.959189   -5.233818
H       0.410863    1.873098   -0.792394
H      -1.165536    1.642204   -0.037924
H       0.269080    1.815530    0.994235
H       0.805653   -0.418574   -1.930285
H       0.385974   -2.293295   -0.105835
H      -2.128300   -1.010807   -1.316235
H      -1.513767    0.425173   -2.144280
H      -0.638929   -0.998466   -4.007011
H      -1.177478   -2.446636   -3.164076
H      -3.542903   -1.685367   -3.341226
H      -3.010736   -0.200089   -4.151738
H      -3.566048   -1.908805   -5.651620
