20

C      -0.046561    1.507011    0.045335
C      -0.002121   -0.006737    0.030095
C       1.338875   -0.723409   -0.186490
C       0.649402   -0.765321    1.126830
N       1.168135   -0.213684    2.448251
C      -0.179875   -0.687306    3.020877
C       0.240615   -1.863561    2.095473
O      -0.428497   -3.017085    1.734465
C       1.656591   -1.651160    2.701340
H       0.808261    1.912507    0.593704
H      -0.026940    1.912392   -0.972168
H      -0.956455    1.874072    0.532862
H      -0.860691   -0.490781   -0.430831
H       1.353456   -1.619706   -0.798503
H       2.221182   -0.096185   -0.275535
H      -0.153382   -0.844351    4.103084
H      -1.025852   -0.069316    2.714706
H      -0.568269   -3.556557    2.520381
H       2.521129   -1.929882    2.096244
H       1.804975   -1.870908    3.762587
