15

C      -0.107506    1.468750    0.010006
C      -0.027087   -0.019898   -0.031198
N      -0.083711   -0.774293   -1.102062
C       0.031073   -2.082580   -0.662073
N       0.023881   -3.256748   -1.456479
C       0.157938   -2.097372    0.697731
O       0.297094   -3.105572    1.583645
N       0.121895   -0.789949    1.106699
H       0.795726    1.919672    0.439108
H      -0.222177    1.835696   -1.010791
H      -0.962311    1.820233    0.600821
H       0.776682   -3.237565   -2.139561
H      -0.838709   -3.329022   -1.989765
H       0.293198   -3.912280    1.048940
H       0.192183   -0.472309    2.058764
