17

C      -0.061071    1.572177    0.049241
C       0.002949    0.029506    0.011614
C       0.804113   -0.499129   -1.183099
C       1.811777   -1.289427   -0.815059
C       1.888188   -1.399368    0.670764
N       2.158780   -0.078062    1.311096
C       0.776977   -0.573319    1.206209
C      -1.361072   -0.521554   -0.020160
N      -2.433459   -0.953262   -0.038469
H       0.954196    1.959089    0.149086
H      -0.511370    1.964092   -0.866514
H      -0.660952    1.913729    0.897225
H       0.555509   -0.200767   -2.194407
H       2.518785   -1.760169   -1.486913
H       2.239960   -2.300949    1.159151
H       2.480750   -0.227924    2.266009
H       0.229065   -0.835383    2.103750
