23

C       0.135680    1.600743    0.061487
C      -0.005078    0.081113   -0.063505
C       0.692215   -0.540737   -1.286216
O       2.076128   -0.209156   -1.222081
C       0.570742   -2.077582   -1.204134
O       1.464870   -2.717178   -2.109442
C       0.078218   -0.045037   -2.600084
C       0.566559    1.206835   -3.274751
C       0.833152   -0.131207   -3.913832
H       1.190091    1.888568    0.065166
H      -0.356635    2.123667   -0.762544
H      -0.315632    1.948859    0.995822
H       0.419824   -0.391869    0.830017
H      -1.067342   -0.195575   -0.090489
H       2.539672   -0.964650   -1.609940
H       0.872094   -2.414377   -0.207445
H      -0.468513   -2.392620   -1.373866
H       1.159704   -2.516076   -3.001024
H      -0.991247   -0.232151   -2.668095
H      -0.163311    1.865081   -3.732478
H       1.417565    1.702375   -2.823990
H       1.861635   -0.475052   -3.897102
H       0.281456   -0.400666   -4.808103
