21

C       0.273046    1.468715    0.296933
C      -0.254378    0.113415   -0.208831
C       0.479314   -0.390510   -1.365865
C       1.112038   -0.776133   -2.316363
C       1.847791   -1.291137   -3.467685
C       2.196501   -2.790906   -3.280748
O       3.149937   -3.253387   -4.208304
C       1.028932   -1.048263   -4.747033
O       1.791908   -1.498528   -5.867810
H       1.322706    1.390628    0.592594
H       0.199184    2.230240   -0.484174
H      -0.305658    1.804673    1.162562
H      -0.204491   -0.624413    0.602266
H      -1.317993    0.206354   -0.463848
H       2.800099   -0.753437   -3.571112
H       2.624163   -2.933705   -2.283957
H       1.259382   -3.373217   -3.319261
H       2.846991   -2.961979   -5.078658
H       0.079004   -1.596989   -4.671894
H       0.796583    0.021089   -4.839925
H       1.232180   -1.478157   -6.649194
