20

C      -0.186841    1.659909   -0.133003
C      -0.071187    0.140951    0.036745
C       0.785886   -0.503130   -1.042294
N       2.262385   -0.162075   -1.112354
C       2.871279   -0.750275    0.079456
C       2.615855   -1.655984   -1.080315
C       3.681049   -2.316790   -1.900612
C       1.152393   -2.004489   -1.063791
O       0.536678   -3.016433   -1.245331
H       0.797977    2.135167   -0.095685
H      -0.640960    1.915025   -1.096475
H      -0.805473    2.096681    0.656514
H       0.318440   -0.093811    1.033378
H      -1.062982   -0.324172   -0.015372
H       0.361183   -0.269496   -2.027770
H       3.905469   -0.453084    0.229838
H       2.298764   -0.850526    0.997492
H       4.580355   -1.696097   -1.939905
H       3.950258   -3.283888   -1.463202
H       3.337095   -2.495064   -2.923898
