21

C       0.013597    1.576583   -0.035412
C       0.064589    0.038388   -0.040876
C       0.829615   -0.506603   -1.254777
O       2.228110   -0.319013   -1.096477
C       2.780726   -1.086586   -0.031351
C       4.186023   -0.517667    0.183635
O       4.948386   -0.572922   -1.002243
C       1.933450   -1.029804    1.208932
C       0.710813   -0.502963    1.212050
H       1.027003    1.983841   -0.093227
H      -0.560371    1.952593   -0.889198
H      -0.453265    1.956228    0.878806
H      -0.965581   -0.341369   -0.094074
H       0.605618   -1.575867   -1.393976
H       0.552297    0.022435   -2.171714
H       2.891769   -2.135525   -0.363999
H       4.091690    0.512122    0.563810
H       4.713674   -1.111206    0.937598
H       4.388031   -0.193688   -1.690013
H       2.370875   -1.444228    2.114003
H       0.138718   -0.448533    2.135219
