25

C      -0.132035    1.584849    0.071027
C       0.022392    0.063588   -0.008089
C       0.734071   -0.529952    1.215493
O       0.065846   -0.147870    2.421438
C       0.918621   -2.060615    1.146700
C       1.672028   -2.524835   -0.108149
C       1.625096   -2.562427    2.409404
O       1.603390   -3.976479    2.411723
C       2.243283   -4.529901    3.534516
H       0.846760    2.077120    0.088738
H      -0.683774    1.970522   -0.791510
H      -0.662503    1.875340    0.981009
H      -0.966530   -0.410435   -0.101540
H       0.574636   -0.203781   -0.914827
H       1.725758   -0.063412    1.302876
H      -0.822172   -0.522372    2.388461
H      -0.083005   -2.517914    1.140377
H       1.901733   -3.589182   -0.024057
H       1.089623   -2.373721   -1.020337
H       2.619309   -1.982501   -0.218277
H       2.668470   -2.197141    2.425829
H       1.126905   -2.166935    3.305161
H       3.308448   -4.250804    3.578930
H       1.769165   -4.208902    4.475942
H       2.167393   -5.617379    3.454444
