19

C      -0.081680    1.527210   -0.065664
C       0.018973    0.005859   -0.024230
N       0.943387   -0.415231   -1.120684
C       1.628866   -1.359678   -0.616524
N       3.015676   -1.032006   -0.232584
C       2.283155   -1.009633    1.152051
C       1.200002   -1.940081    0.771283
C       0.730669   -0.598322    1.220839
C       0.174299   -0.353062    2.603417
H       0.914550    1.975544   -0.022698
H      -0.562225    1.851468   -0.992137
H      -0.674839    1.894042    0.779133
H      -0.992034   -0.428436   -0.091297
H       3.572423   -1.891059   -0.149517
H       2.902700   -0.974153    2.043312
H       0.935456   -2.945063    1.075468
H       0.700467   -0.938316    3.363567
H       0.249824    0.703057    2.882069
H      -0.884707   -0.633730    2.645094
