21

C       2.222404    0.031308   -0.951450
C       1.244322   -0.856808   -0.211740
C       1.679472   -1.762258    0.913960
C       0.757993   -0.594878    1.198128
C       1.291191    0.563561    2.008603
O       1.233380    0.198482    3.385287
C      -0.679085   -0.910168    1.517977
C      -1.797172   -0.430365    0.693191
O      -1.372049   -1.795801    0.637006
H       3.036596    0.380327   -0.310001
H       2.679604   -0.519998   -1.780483
H       1.729074    0.913287   -1.375879
H       0.473449   -1.288749   -0.844065
H       1.261242   -2.761748    0.958410
H       2.702579   -1.682334    1.268318
H       2.322584    0.796323    1.710247
H       0.681909    1.462492    1.819126
H       1.459916    0.972354    3.909418
H      -0.871221   -1.095358    2.573970
H      -2.776575   -0.267023    1.140182
H      -1.586595    0.155415   -0.200554
