21

C       0.079909    1.447796   -0.158504
C      -0.005509   -0.037248    0.009024
O       0.586977   -0.894981   -1.034771
C       0.033712   -1.835076   -0.041608
C       0.183541   -3.303208   -0.292316
C       0.574722   -0.956178    1.128753
C      -0.394350   -1.010420    2.304558
C      -1.757002   -1.018580    1.537764
C      -1.255384   -0.967103    0.098913
H       1.124682    1.770081   -0.208664
H      -0.422488    1.760893   -1.079102
H      -0.397733    1.956830    0.685112
H       1.241300   -3.576398   -0.359006
H      -0.270661   -3.879226    0.520611
H      -0.305663   -3.585544   -1.229813
H       1.651518   -0.937533    1.300775
H      -0.253198   -1.905871    2.918202
H      -0.291616   -0.145563    2.967722
H      -2.346595   -1.918433    1.740156
H      -2.385051   -0.158128    1.789744
H      -1.961407   -0.959095   -0.732289
