21

C      -0.389418    0.934201   -1.709108
C      -0.022429   -0.234508   -0.816972
C       1.407583   -0.589864   -0.463597
C       2.608100    0.195335   -0.953618
C       0.468121   -0.079774    0.611491
C       0.618813    1.287647    1.272553
N      -0.606809    1.834207    1.873650
C       1.663305    1.220573    2.311400
N       2.486158    1.130938    3.117505
H       0.264041    1.800070   -1.578510
H      -0.328458    0.643966   -2.763449
H      -1.417572    1.265609   -1.522723
H      -0.677454   -1.089861   -0.964841
H       1.606961   -1.656720   -0.401642
H       2.410872    1.264835   -1.059854
H       3.450114    0.085939   -0.262613
H       2.930910   -0.171740   -1.933740
H       0.113261   -0.826100    1.318939
H       0.962916    2.022684    0.538012
H      -1.314140    1.903907    1.147339
H      -0.967284    1.177406    2.561186
