20

C       0.075014    1.465078    0.372277
N      -0.271794    0.090025    0.015101
C       0.415673   -0.410310   -1.152791
C       1.952308   -0.624261   -1.171061
O       1.802167   -2.038287   -1.413314
C       0.365577   -1.969253   -1.368811
C      -0.232310   -2.839271   -0.278140
C      -0.127699    0.302726   -2.380894
O       0.514008    0.581203   -3.360145
H       1.149666    1.627684    0.556956
H      -0.228458    2.145677   -0.430765
H      -0.474504    1.752026    1.272667
H      -0.108773   -0.519554    0.807157
H       2.475717   -0.120535   -1.989162
H       2.455628   -0.421572   -0.217177
H      -0.067008   -2.250382   -2.338983
H       0.223697   -2.639364    0.696534
H      -1.313576   -2.688278   -0.205900
H      -0.043876   -3.890385   -0.516703
H      -1.216941    0.520466   -2.305688
