16

N      -0.111725    1.409688    0.394697
C      -0.091317    0.154676    0.302202
O      -1.223378   -0.500621   -0.058961
C      -1.169442   -1.908278   -0.112243
C      -1.007277   -2.549041    1.268381
O      -0.738012   -1.934849    2.264901
C      -2.456281   -2.381815   -0.762877
C      -2.505168   -2.751985   -2.179341
O      -2.457564   -3.751785   -1.154692
H       0.809169    1.755440    0.655612
H       0.768627   -0.505962    0.461754
H      -0.325252   -2.265030   -0.726585
H      -1.147398   -3.650793    1.263979
H      -3.365316   -2.032489   -0.274157
H      -3.447781   -2.684432   -2.717872
H      -1.606934   -2.661666   -2.787770
