16

O      -0.046181    0.030968    0.592128
C      -0.082628    1.119235    0.098126
C      -1.363837    1.922297   -0.065123
C      -1.305067    3.072416   -1.074977
C       0.000937    3.839384   -0.881415
C       1.183846    2.882993   -1.066185
O       1.109652    1.708179   -0.247613
C       1.323722    2.478200   -2.479954
N       1.423213    2.182482   -3.592158
H      -2.158569    1.207424   -0.288157
H      -1.580150    2.318122    0.936420
H      -1.351909    2.683675   -2.098608
H      -2.167699    3.731797   -0.946028
H       0.101264    4.665850   -1.590501
H       0.058509    4.258385    0.129528
H       2.118208    3.369977   -0.770799
