14

N      -0.054016    1.283932   -0.067039
C       0.009021    0.030469    0.012130
O       1.160881   -0.724360    0.055015
C       0.756864   -2.038268    0.452834
C       0.127277   -1.966837    1.876646
C      -1.226752   -1.768545    1.184598
C      -0.671161   -2.196344   -0.131199
N      -1.137513   -0.823244    0.030299
H       0.885570    1.681644   -0.064140
H       1.556142   -2.743091    0.240907
H       0.162097   -2.934918    2.383105
H       0.506254   -1.182500    2.537518
H      -2.214179   -1.906442    1.606212
H      -1.044763   -2.821426   -0.931904
