17

O      -0.435865    0.525803    0.870654
C       0.516523    0.683235    0.151868
C       1.272056    1.989834    0.009451
C       1.378935    2.883896    1.255457
C       2.895482    2.612869    1.138480
C       3.566909    1.893398    2.309419
C       4.949364    1.524934    2.033940
C       6.090502    1.238374    1.791057
O       2.695632    1.745154   -0.008963
H       0.937578   -0.140642   -0.466462
H       0.934284    2.493341   -0.909487
H       1.071715    3.921056    1.125699
H       0.890785    2.464783    2.137414
H       3.489711    3.487835    0.851093
H       3.522832    2.556116    3.184702
H       2.979649    1.001019    2.560001
H       7.097124    0.975332    1.579338
