19

O       0.017625    0.044184    0.048002
C      -0.005919    1.245880    0.027867
C      -1.225236    2.168220    0.040757
C      -0.788129    3.293120    1.014593
C       0.772977    3.203652    1.117568
C       1.173796    2.218953   -0.006247
C       1.108556    2.899608   -1.366159
C      -0.052994    3.124056   -1.983387
C      -1.381194    2.690615   -1.411993
H      -2.127614    1.641903    0.355315
H      -1.107301    4.272690    0.648845
H      -1.245524    3.153719    1.997296
H       1.250494    4.179281    1.000703
H       1.074694    2.801688    2.090451
H       2.131216    1.722349    0.154297
H       2.046794    3.217127   -1.812303
H      -0.068822    3.626457   -2.947291
H      -1.817403    1.904129   -2.043892
H      -2.097742    3.523233   -1.430018
