17

O      -0.011935    0.025385    0.041695
C       0.026133    1.219297    0.014172
O      -1.099473    2.007533    0.039473
C      -0.631413    3.394481    0.042057
C       0.590126    3.293188   -0.883050
C       1.225495    2.181284   -0.024129
C       1.221129    2.780669    1.398687
C       1.297102    4.274308    1.590488
C      -0.050441    3.614063    1.438099
H      -1.463395    4.024190   -0.268061
H       0.307952    2.949438   -1.880173
H       1.178747    4.204598   -0.974479
H       2.147528    1.713801   -0.362151
H       1.493734    2.127777    2.218873
H       1.544128    4.597418    2.596339
H       1.695962    4.925831    0.822486
H      -0.733561    3.573802    2.277617
