16

C      -1.096849    1.188011   -0.231290
N      -0.240002    0.022080    0.013502
C      -0.189784   -0.433339    1.377729
N       0.594523   -1.504266    1.609936
O      -0.832592    0.144055    2.234561
C       0.439689   -0.541625   -1.053216
N       1.216515   -1.565725   -0.947058
C       0.230798    0.091688   -2.331578
C       0.115974    0.554717   -3.435890
H      -0.514528    2.022461   -0.630024
H      -1.894871    0.943745   -0.936949
H      -1.527556    1.466351    0.727084
H       1.106119   -1.939625    0.846276
H       0.632139   -1.824174    2.561685
H       1.608868   -1.808462   -1.851226
H       0.009309    0.969590   -4.408576
