23

C       0.428454    1.747546   -0.651239
C       0.414853    0.245387   -0.425925
C      -0.818754   -0.413087   -1.031330
C       1.647326   -0.616629   -0.497086
C       2.881829    0.054446    0.124434
C       2.139700    0.105104    1.500840
C       2.082074    1.379008    2.325435
O       3.390717    1.609254    2.835695
C       0.879153   -0.460398    0.832174
H       1.369553    2.218044   -0.364940
H       0.266277    1.968551   -1.713253
H      -0.376209    2.236795   -0.089545
H      -0.863922   -0.237839   -2.112384
H      -0.819489   -1.495262   -0.867561
H      -1.737110   -0.007171   -0.591191
H       1.686462   -1.483290   -1.147819
H       3.760375   -0.592350    0.149085
H       3.182148    1.013750   -0.308197
H       2.568693   -0.666184    2.149221
H       1.739948    2.232240    1.724686
H       1.352646    1.243629    3.142172
H       3.383913    2.441118    3.317742
H       0.221879   -1.177665    1.313327
