16

C       0.009893    1.466816    0.083049
C      -0.011552    0.014195    0.009782
C      -0.030820   -1.187218   -0.060784
C      -0.046581   -2.646736   -0.130419
O       0.635967   -3.265334    0.967933
C      -0.337659   -3.443952    1.958236
O      -1.569781   -3.702223    1.277992
C      -1.460146   -3.216856    0.009038
N      -2.338422   -3.241659   -0.889828
H       0.690777    1.810717    0.869123
H       0.346432    1.903553   -0.863247
H      -0.985238    1.868151    0.302388
H       0.420662   -3.001755   -1.051807
H      -0.075778   -4.310847    2.569093
H      -0.463149   -2.545813    2.581085
H      -3.201228   -3.668268   -0.549356
