19

C      -0.037808    1.525766   -0.049863
C      -0.119266    0.039981    0.253367
O      -1.313832   -0.470227   -0.318584
C      -1.456855   -1.841441   -0.193195
C      -2.029279   -2.540720    1.107474
C      -3.331736   -1.763074    1.336348
C      -3.842624   -1.724209    0.104536
C      -2.777052   -2.490649   -0.698039
O      -2.463777   -3.604211    0.201066
H       0.871666    1.953518    0.382345
H      -0.023776    1.696044   -1.130067
H      -0.901769    2.049770    0.368225
H       0.752850   -0.491362   -0.161493
H      -0.117022   -0.134054    1.341279
H      -0.572728   -2.382339   -0.557725
H      -1.425044   -2.881009    1.947017
H      -3.693037   -1.351571    2.266705
H      -4.746806   -1.274868   -0.276871
H      -2.957410   -2.774523   -1.733509
