21

C      -0.122558    1.221562   -0.721809
C      -0.207952   -0.210971   -0.189104
C      -1.604377   -0.598229    0.311390
C      -2.652930   -0.801926   -0.824464
C      -2.550143   -2.312418   -0.587610
O      -2.907454   -3.275145   -1.202080
C      -1.729402   -2.118268    0.694774
O      -2.125604    0.302896    1.269438
C      -1.418069    0.377137    2.489621
H       0.893180    1.452719   -1.055461
H      -0.794452    1.373342   -1.573022
H      -0.403655    1.944892    0.048151
H       0.081049   -0.922719   -0.972464
H       0.518727   -0.353395    0.620532
H      -3.630925   -0.407262   -0.532322
H      -2.406692   -0.446205   -1.827580
H      -0.817467   -2.714236    0.784760
H      -2.347769   -2.267433    1.586111
H      -2.016741    0.995630    3.162615
H      -1.284931   -0.613470    2.948807
H      -0.429229    0.842267    2.376897
