16

C       0.122272    1.496682    0.063450
C       0.045866    0.045422    0.026391
C      -0.012933   -1.156801    0.004207
C      -0.044521   -2.593970   -0.046815
O      -0.517050   -3.298115    1.117821
C      -1.325250   -3.366105   -0.051228
C      -2.669915   -2.695886   -0.017122
C       1.109852   -3.210077   -0.686163
N       2.016171   -3.698380   -1.210663
H       1.133631    1.839669   -0.178299
H      -0.568621    1.949701   -0.655312
H      -0.131254    1.875349    1.059268
H      -1.285362   -4.334003   -0.553082
H      -2.601145   -1.699442    0.422762
H      -3.073741   -2.611378   -1.030947
H      -3.366581   -3.296662    0.576063
