19

C       0.048257    1.396224    0.059042
N      -0.143061   -0.037150   -0.073149
C       0.567935   -0.683591   -1.082110
C       1.255287   -0.162638   -2.136427
O       1.745077   -1.178536   -2.923786
C       1.364776   -2.354423   -2.363246
C       1.771734   -3.614249   -3.033720
C       0.644301   -2.120624   -1.229653
N       0.073215   -3.113746   -0.387200
H       1.103377    1.688807    0.188085
H      -0.329060    1.896917   -0.839472
H      -0.525818    1.763211    0.913228
H      -0.072590   -0.527501    0.809085
H       1.469306    0.836413   -2.472447
H       1.477666   -3.616083   -4.089105
H       2.856837   -3.769925   -2.996595
H       1.284611   -4.452140   -2.530024
H       0.625811   -3.275106    0.449709
H      -0.858099   -2.843089   -0.086581
