19

C      -0.169637    1.487434    0.031239
C       0.041615   -0.007859    0.000281
C      -0.760711   -0.938863    0.895223
C       0.718485   -0.784304    1.104119
O       1.589096   -1.765681    0.590399
C       1.589413   -1.721029   -0.825146
C       0.670592   -2.721460   -1.550902
O      -0.276012   -1.677470   -1.879864
C       0.558848   -0.657249   -1.277563
H       0.717882    2.025319   -0.321874
H      -1.013986    1.782806   -0.601956
H      -0.383450    1.833888    1.047092
H      -1.419070   -0.472541    1.621573
H      -1.139695   -1.854912    0.457955
H       1.107001   -0.317115    2.003128
H       2.620544   -1.662653   -1.183463
H       1.100234   -3.174082   -2.452828
H       0.239983   -3.500845   -0.912694
H       0.869604    0.087179   -2.017743
