15

N       0.056448   -1.124978   -0.054427
C       0.032936    0.031451   -0.026563
C      -0.049585    1.452751    0.010494
C      -1.204194    2.308892    0.618553
C      -0.506389    3.594477    0.989834
C       0.985383    3.332111    1.068253
N       1.166885    2.297985    0.036863
C       0.185787    2.507240   -1.030773
C      -0.960934    3.368671   -0.435251
H      -2.125738    1.932826    1.035908
H      -1.010566    4.322504    1.612457
H       1.591826    4.205460    0.810782
H       1.306882    2.942835    2.038237
H       0.483292    2.409917   -2.066236
H      -1.666263    3.976960   -0.980656
