16

O      -0.008533    0.066549    0.154433
C      -0.025401    1.264717    0.051233
C      -1.211742    2.171812   -0.018867
C      -0.991051    3.478353    0.691886
C       0.210912    3.647082    1.600423
O       1.322588    2.837778    1.222370
C       1.171875    2.236878   -0.066894
C       0.642511    3.243755   -1.083334
N      -0.804583    3.411901   -0.751195
H      -2.203863    1.772925   -0.193120
H      -1.875589    4.030342    1.003381
H       0.515378    4.704737    1.597736
H      -0.063602    3.389462    2.630573
H       2.113237    1.746752   -0.309548
H       1.153163    4.209308   -1.036864
H       0.712620    2.856077   -2.104469
