21

C      -0.011480   -1.121561   -0.849647
C       0.004077   -0.049427   -0.306393
C       0.049352    1.250831    0.356655
C       1.422097    1.907138    0.294692
C       1.824364    2.715838   -0.916569
C       1.551101    3.398229    0.396136
C       0.458184    4.451545    0.645180
C       1.571780    5.415715    1.151903
C       2.565900    4.218011    1.206642
H      -0.033542   -2.066976   -1.331919
H      -0.692915    1.918089   -0.099817
H      -0.258166    1.132095    1.404632
H       2.210354    1.323107    0.763509
H       2.850968    2.648534   -1.263049
H       1.092523    2.829760   -1.711765
H      -0.122622    4.781062   -0.220652
H      -0.239113    4.162893    1.439124
H       1.853854    6.153019    0.396569
H       1.378453    5.937917    2.091175
H       2.706980    3.833068    2.222102
H       3.550033    4.371325    0.755174
