16

O       0.403043    1.326133   -0.081183
C       0.330214   -0.070587   -0.052937
C      -1.103836   -0.544433    0.014127
O      -2.021195    0.255769    0.036445
C      -1.374398   -2.029915    0.052533
N      -0.390977   -2.837092    0.027696
N      -2.736900   -2.296768    0.112441
C      -3.337754   -3.531968    0.159939
N      -2.678407   -4.622974    0.153343
H      -0.511456    1.643413   -0.050635
H       0.797527   -0.522106   -0.940548
H       0.869130   -0.490307    0.809280
H      -0.723146   -3.804633    0.058939
H      -3.316496   -1.468185    0.120584
H      -4.429672   -3.452839    0.203048
H      -3.305423   -5.422373    0.193908
