20

C      -0.099533    1.535289   -0.005237
C       0.051883    0.019823   -0.032653
C       0.942866   -0.544509   -1.166926
C       1.946836   -1.289986   -0.291978
O       2.932855   -2.065764   -0.899066
C       1.176974   -1.898862    0.917142
C       2.393336   -1.663164    1.831880
C       2.229704   -0.395762    0.974259
N       0.723537   -0.473693    1.210018
H       0.877577    2.030980    0.013356
H      -0.635983    1.889499   -0.891328
H      -0.653074    1.848448    0.884522
H      -0.942758   -0.439496   -0.057175
H       0.416811   -1.217844   -1.850247
H       1.421528    0.239578   -1.766641
H       3.367232   -1.535101   -1.575014
H       0.467335   -2.729338    0.908554
H       2.174101   -1.550464    2.894136
H       3.274000   -2.273562    1.634722
H       2.771074    0.550747    1.038229
