20

C       0.041028    1.564255    0.002382
C       0.037375    0.022275    0.022639
C       0.811323   -0.501107    1.249574
C      -1.424497   -0.505013    0.052313
C      -2.179809   -0.079653    1.223996
C      -2.799144    0.274018    2.192640
C       0.678693   -0.522758   -1.274450
N       1.977584   -0.163645   -1.486574
O       0.078169   -1.228029   -2.064098
H       1.056363    1.972272    0.023464
H      -0.455718    1.948769   -0.894168
H      -0.491731    1.948308    0.876720
H       0.306763   -0.188545    2.168002
H       0.864191   -1.594547    1.246154
H       1.835488   -0.116663    1.282671
H      -1.934912   -0.178530   -0.859517
H      -1.405333   -1.598194   -0.002936
H      -3.361035    0.576599    3.041144
H       2.497886    0.416057   -0.853937
H       2.428608   -0.500582   -2.320836
