18

C       0.014127    1.504791   -0.034286
C       0.010146   -0.037418   -0.006231
C       0.776345   -0.680086   -1.206700
C       1.560732   -1.887828   -0.630806
O       2.840060   -2.074717   -1.213060
C       1.582318   -1.599491    0.852978
C       0.757849   -0.614417    1.194126
C      -1.386273   -0.507447    0.025053
N      -2.484171   -0.869294    0.055826
H       1.046036    1.866810   -0.016743
H      -0.473604    1.878890   -0.938727
H      -0.513616    1.915195    0.831139
H       0.118298   -0.947267   -2.034801
H       1.502047    0.049466   -1.581964
H       1.035931   -2.830150   -0.828945
H       3.379731   -1.308201   -0.988104
H       2.199871   -2.174567    1.533831
H       0.568573   -0.248741    2.196967
