23

C      -0.613624    1.397617   -0.002446
C       0.128300    0.062689   -0.091987
C       1.186471   -0.028086   -1.207380
C       1.947056   -1.322889   -0.873744
C       2.025819   -1.345479    0.671113
C       3.311441   -0.726262    1.265656
O       2.899228    0.088162    2.350199
C       1.699155    0.712264    1.921543
C       0.900353   -0.380856    1.175926
H       0.070843    2.235770    0.164090
H      -1.157474    1.600860   -0.931055
H      -1.344620    1.396158    0.813478
H      -0.618350   -0.718006   -0.295357
H       0.747900   -0.032149   -2.210037
H       1.860109    0.837526   -1.156611
H       1.376742   -2.186604   -1.233450
H       2.934705   -1.376151   -1.343722
H       1.890301   -2.356755    1.060705
H       4.020466   -1.464290    1.650103
H       3.829774   -0.118483    0.503289
H       1.190775    1.106028    2.805160
H       1.931253    1.559634    1.255188
H       0.234225   -0.878516    1.885471
