13

N       0.146161    1.360710   -0.111601
C      -0.011294   -0.004292   -0.047277
C      -1.085803   -0.846156   -0.036847
N      -0.606091   -2.179517   -0.091018
C       0.666804   -2.037496   -0.112881
O       1.625248   -2.961312   -0.139920
O       1.130233   -0.761098   -0.096212
C      -2.443899   -0.481899    0.016610
C      -3.596437   -0.130835    0.069068
H       0.880747    1.721550    0.485166
H      -0.728294    1.845835    0.041860
H       1.181599   -3.819269   -0.135173
H      -4.615683    0.162973    0.107993
