18

C      -0.193822    1.267768    0.093291
C      -0.269001   -0.097896   -0.595964
C       1.086829   -0.506202   -1.188609
N       1.209492   -1.775460   -1.883167
C       0.223624   -2.543455   -2.006165
O       0.364168   -3.720913   -2.658168
C      -0.810868   -4.514481   -2.741712
H       0.535944    1.258844    0.910346
H       0.109234    2.050210   -0.611094
H      -1.161484    1.556072    0.514645
H      -0.602908   -0.854146    0.126268
H      -1.027785   -0.066196   -1.388597
H       1.418633    0.274772   -1.887615
H       1.839446   -0.505605   -0.387242
H      -0.792371   -2.366617   -1.629354
H      -1.179713   -4.798030   -1.747805
H      -1.610785   -3.997695   -3.287022
H      -0.535052   -5.417230   -3.288350
