21

C      -0.026407    1.578291    0.047243
C       1.487434    1.956041    0.003744
C       2.194812    0.607799    0.230816
C       2.206813   -0.327966   -1.015255
C       0.682929   -0.306140   -1.410711
C       0.020563    0.043027   -0.048791
C       1.170709   -0.289558    0.982629
C       1.754585   -1.669696    0.801547
C       2.410368   -1.684652   -0.363533
H      -0.478658    1.896659    0.993037
H      -0.606845    2.032958   -0.760951
H       1.775350    2.411483   -0.949812
H       1.746004    2.673972    0.787283
H       3.174901    0.675619    0.707541
H       2.890666   -0.066671   -1.824349
H       0.462983    0.458134   -2.162960
H       0.367256   -1.270604   -1.813652
H      -0.932736   -0.454695    0.134532
H       0.918975    0.002574    2.004332
H       1.601443   -2.499059    1.480867
H       2.879223   -2.533907   -0.845749
