22

C       0.591284    0.344915   -0.977373
N      -0.545038    1.072672   -0.387933
C       0.449162    0.449487    0.495754
C      -0.020184   -0.710891    1.334105
C       1.106853   -1.699441    1.665608
C       0.603638   -2.791584    2.620618
C      -0.076867   -2.156779    3.841084
C      -1.127889   -1.144001    3.382778
O      -0.572285   -0.160789    2.526060
H       0.322415   -0.577700   -1.485721
H       1.391380    0.903491   -1.455972
H      -0.386916    2.075056   -0.442154
H       1.146536    1.106285    1.013702
H      -0.814049   -1.237104    0.775350
H       1.495897   -2.137762    0.739843
H       1.930693   -1.145943    2.135078
H      -0.120954   -3.426833    2.092455
H       1.427195   -3.444789    2.927988
H      -0.546328   -2.919971    4.472499
H       0.669427   -1.637952    4.455536
H      -1.952011   -1.668605    2.867854
H      -1.556605   -0.601031    4.230498
