18

C      -0.037691    1.543815    0.029291
C      -0.002597    0.035132   -0.003287
C       0.353077   -0.800647   -1.287593
C      -0.320405   -1.948819   -0.464345
C       0.630077   -2.015401    0.740584
C       0.835663   -0.732084    1.039621
C      -1.328430   -0.837792    0.013801
C      -2.067439   -1.003463    1.255518
N      -2.673558   -1.118831    2.233491
H       0.969721    1.957671   -0.088361
H      -0.660972    1.946480   -0.775233
H      -0.439428    1.906825    0.981360
H      -0.214338   -0.498681   -2.174489
H       1.412478   -0.918372   -1.520058
H      -0.674655   -2.872592   -0.917443
H       1.008692   -2.913108    1.206506
H       1.430030   -0.279222    1.820338
H      -2.018804   -0.537960   -0.781481
