17

O      -0.153105    0.160133    0.628395
C      -0.082476    1.310884    0.253395
N      -1.141613    2.170642    0.107853
C      -0.836631    3.480654   -0.442095
C       0.695675    3.543468   -0.323078
C       1.284801    3.894710    1.077325
C       2.026882    2.527439    1.101665
C       1.184164    2.081433   -0.123927
H      -2.080868    1.834889    0.251602
H      -1.170063    3.567462   -1.485975
H      -1.323260    4.279665    0.130668
H       1.153529    4.098780   -1.142093
H       1.909932    4.788813    1.124798
H       0.510822    3.975507    1.846029
H       3.087134    2.621500    0.855319
H       1.930819    1.914642    2.000532
H       1.705779    1.560861   -0.929405
