18

C      -0.198898    1.725632    0.062746
C       0.022818    0.214955    0.066506
C       0.887963   -0.350796   -1.087347
C       2.010891   -0.558540   -0.024915
N       1.025903   -0.287346    1.049886
C       2.600302   -1.951869    0.030664
O       3.716203   -2.232547   -0.321310
C      -1.295798   -0.505879    0.301775
O      -1.882188   -1.158105   -0.521084
H       0.753379    2.253231   -0.054135
H      -0.858575    2.021329   -0.759740
H      -0.659692    2.056688    1.001006
H       0.477415   -1.272030   -1.504619
H       1.131526    0.336798   -1.896689
H       2.825397    0.168223   -0.114466
H       1.325220    0.379257    1.753571
H       1.886709   -2.715378    0.416282
H      -1.677067   -0.395418    1.343716
