20

C       0.011053    1.608665    0.100673
C       0.112678    0.099343    0.065301
C       1.307106   -0.719736   -0.343782
C       2.705856   -0.120795   -0.373955
C       2.949799    0.519878    1.017091
C       1.920128   -0.113841    1.987922
C       0.833399   -0.749418    1.113759
C       0.137314   -1.884988    1.648154
N      -0.424017   -2.797697    2.086919
H       0.916540    2.101491    0.455078
H      -0.202649    1.992267   -0.902916
H      -0.812034    1.918456    0.752961
H      -0.821026   -0.363492   -0.245567
H       1.116313   -1.577529   -0.979224
H       3.422341   -0.928457   -0.556547
H       2.834411    0.603666   -1.185212
H       3.972890    0.349071    1.361768
H       2.822372    1.603562    0.971738
H       2.383103   -0.904537    2.585543
H       1.511445    0.617091    2.692520
