13

N       0.023466    1.427377    0.131111
C       0.023118    0.075320    0.044784
C      -1.083459   -0.759099    0.024940
O      -0.714953   -2.073793   -0.014873
C       0.630428   -2.074928   -0.025381
C       1.146550   -0.815480    0.008482
N      -2.441297   -0.435992    0.012116
O      -2.706556    0.783246    0.035459
O      -3.276835   -1.333007   -0.024614
H       0.850519    1.929781   -0.141040
H      -0.874951    1.868661   -0.007147
H       1.094213   -3.047856   -0.055803
H       2.190679   -0.545417    0.013823
