19

C      -0.047205    1.533757   -0.049000
C       0.015741    0.031314    0.096613
N       1.254552   -0.758946   -0.167290
C       2.450701    0.044489   -0.170438
O       3.106039    0.308242   -1.146045
N       2.717660    0.426559    1.123161
C       1.690803    0.076121    2.079899
C       0.695571   -0.698434    1.202530
C       0.111500   -1.964278    1.778706
H       0.787930    2.046655    0.431809
H      -0.046916    1.813026   -1.107282
H      -0.976627    1.904467    0.395704
H      -0.852626   -0.472671   -0.325027
H       3.500436    1.027067    1.322554
H       2.076165   -0.574574    2.874996
H       1.243671    0.958299    2.558575
H      -0.511366   -1.741756    2.652745
H      -0.507578   -2.476382    1.038155
H       0.903934   -2.652015    2.092911
