19

C      -1.243787    0.825750    0.379844
C       0.028913    0.061401    0.075930
O       0.977381    0.063401    0.826639
C       0.052500   -0.704983   -1.253079
O      -0.425278    0.224590   -2.198093
C       1.285838   -1.608974   -1.580246
C       0.770976   -2.597937   -0.490399
C      -0.499490   -2.182173   -1.286113
C       0.363235   -2.387602   -2.570416
H      -1.342063    1.660754   -0.319683
H      -2.124575    0.191476    0.234703
H      -1.207541    1.198040    1.404285
H      -0.557549   -0.215060   -3.042960
H       2.311143   -1.279660   -1.744383
H       1.075969   -3.637035   -0.629518
H       0.855464   -2.288848    0.548181
H      -1.529315   -2.503477   -1.120007
H       0.058537   -1.900419   -3.501723
H       0.654283   -3.419519   -2.779981
