20

C      -0.053897    1.557300   -0.099908
C      -0.078514    0.035675   -0.074330
N       0.626737   -0.558456   -1.274188
C       1.651220   -1.233879   -0.338742
C       1.012284   -0.564118    0.838658
O       1.352467   -0.361281    1.970157
C       0.650201   -2.020244   -1.135703
C      -0.470480   -2.824470   -0.497617
C       1.218662   -2.682511   -2.380001
H       0.960484    1.929096   -0.269953
H      -0.696026    1.935673   -0.899978
H      -0.410109    1.949942    0.856643
H      -1.099856   -0.330776    0.057550
H       2.715217   -1.279804   -0.548479
H      -0.784937   -2.454592    0.478529
H      -1.344420   -2.844830   -1.158749
H      -0.138088   -3.858129   -0.360912
H       1.673845   -3.647053   -2.133199
H       0.420024   -2.859561   -3.108239
H       1.970068   -2.044784   -2.850536
