19

O       0.102997    1.385295   -0.184508
C       0.012608   -0.001809   -0.055923
C       0.316263   -0.847355   -1.335130
C      -1.018363   -1.616685   -1.140896
C      -1.391728   -0.684848    0.051676
C      -1.453855   -1.366110    1.435116
C       0.018706   -1.652118    1.807880
C       0.756052   -0.469615    1.197538
O       1.700830    0.128858    1.653769
H       0.885220    1.648504    0.324494
H       0.312688   -0.187173   -2.205009
H       1.240489   -1.432266   -1.342282
H      -1.701519   -1.576327   -1.991117
H      -0.898952   -2.665829   -0.856007
H      -2.237803   -0.024492   -0.141124
H      -1.886952   -0.679066    2.170776
H      -2.071373   -2.268958    1.426833
H       0.220155   -1.737226    2.876899
H       0.374674   -2.573542    1.328247
