19

C      -0.189361    1.422299   -0.180340
O       0.068961    0.038836   -0.000352
C       0.713677   -0.558954   -1.100101
C       1.170058   -2.003039   -0.727163
C       1.506909   -2.361757    0.711727
C      -0.175411   -2.477370   -1.307963
O      -0.919407   -3.375835   -1.040203
C      -0.345092   -1.162906   -2.104999
O      -1.606364   -0.582846   -2.220460
H       0.748214    1.985060   -0.301011
H      -0.828567    1.606758   -1.051394
H      -0.695854    1.770351    0.722992
H       1.476316    0.103923   -1.525034
H       1.975999   -2.301398   -1.409351
H       0.747983   -1.971479    1.392167
H       1.546862   -3.448802    0.825462
H       2.476162   -1.949398    1.007099
H       0.079243   -1.255675   -3.110835
H      -2.037336   -0.665443   -1.361690
