18

O       0.175858    1.310263    0.353236
C       0.003288   -0.035445    0.011122
C      -1.481499   -0.409681   -0.121971
C      -1.562500   -1.896537   -0.433481
C      -1.891818   -2.401881   -1.822851
C      -0.476995   -2.434230   -1.325805
O       0.441122   -1.527311   -1.910350
C       0.714823   -0.350059   -1.294131
N       1.510936    0.504426   -1.782924
H       0.842579    1.649622   -0.267245
H       0.441792   -0.687937    0.787650
H      -1.998851   -0.169927    0.809846
H      -1.934105    0.203225   -0.908079
H      -1.843187   -2.538431    0.395421
H      -2.422274   -3.341781   -1.925727
H      -2.121807   -1.661001   -2.581375
H      -0.000825   -3.383879   -1.107668
H       1.913505    0.192792   -2.666154
