19

C      -0.153993    1.511956    0.088377
C       0.129123    0.008021   -0.033990
C       0.739101   -0.563612    1.203865
C       0.099481   -1.027822    2.463707
C       1.039797   -1.970178    1.682556
C       0.672304   -3.343824    1.206328
C       2.433927   -1.432995    1.885605
O       3.510632   -1.853642    2.161849
O       2.100493   -0.129676    1.540416
H       0.768088    2.062226    0.295090
H      -0.583061    1.900801   -0.839299
H      -0.857938    1.715314    0.901307
H      -0.799533   -0.537113   -0.240269
H       0.803539   -0.178740   -0.877847
H       0.402224   -0.604899    3.416442
H      -0.946794   -1.314867    2.396492
H      -0.378440   -3.385290    0.903433
H       1.285709   -3.645915    0.352048
H       0.818674   -4.082828    2.000842
