16

C       0.197585    1.529442    0.085411
C      -0.046292    0.067628    0.044543
C      -1.154151   -0.692293   -0.011851
C      -2.605060   -0.363673   -0.073873
O      -3.266209   -1.049650   -1.132627
N      -0.714709   -2.023246    0.014691
C       0.657338   -2.076821    0.049610
O       1.401544   -3.017647    0.043434
O       1.067984   -0.751863    0.097365
H       0.862527    1.837934   -0.728938
H      -0.742258    2.077969   -0.007817
H       0.675004    1.826319    1.026227
H      -3.116874   -0.697163    0.836696
H      -2.732817    0.725421   -0.139216
H      -2.854766   -0.775676   -1.959853
H      -1.289016   -2.830946   -0.153826
