13

O      -0.194311    0.092892   -0.361609
C      -0.029007    1.176061    0.125819
C       1.293828    1.942910    0.032729
C       2.456728    1.147477   -0.618694
O       2.359237    1.905146   -1.838708
C       1.380514    2.788810   -1.292028
C       1.561361    2.661809    1.264011
N       1.752065    3.229921    2.252769
H      -0.839643    1.720805    0.651819
H       3.424001    1.274307   -0.122788
H       2.227339    0.089359   -0.767276
H       0.459636    2.821646   -1.885185
H       1.758532    3.804782   -1.132913
