17

C      -0.040551    1.558694    0.000123
C      -0.030001    0.018199   -0.002998
C      -1.464741   -0.542893   -0.005540
C       0.765142   -0.517550   -1.186269
O       0.532430   -0.356491   -2.354183
C       1.939884   -1.315528   -0.621260
O       1.829618   -1.244641    0.799975
C       0.746822   -0.511542    1.201133
O       0.496512   -0.344873    2.357800
H       0.972475    1.972340    0.000827
H      -0.558655    1.921397   -0.891299
H      -0.555893    1.918276    0.894089
H      -1.991348   -0.192864   -0.897046
H      -1.473526   -1.637078   -0.008808
H      -1.991966   -0.200721    0.888331
H       1.898598   -2.360428   -0.947036
H       2.896072   -0.889119   -0.943029
