23

C      -0.107745    1.530282    0.503277
C      -0.070039    0.085969   -0.015442
C      -1.436719   -0.552873   -0.158104
C      -2.131933   -1.110553    1.069985
C      -1.660305   -2.042986   -0.019336
C      -2.690182   -2.492282   -1.049171
C      -3.408826   -1.193397   -1.464593
C      -2.363951   -0.067560   -1.274199
O      -2.937940    1.218375   -1.077042
H       0.900957    1.950893    0.564600
H      -0.710592    2.164619   -0.151005
H      -0.548971    1.572509    1.505392
H       0.436335    0.061855   -0.990310
H       0.541168   -0.527449    0.658960
H      -1.561740   -1.099973    1.993233
H      -3.198128   -0.963803    1.218543
H      -0.827552   -2.702321    0.203993
H      -2.172758   -2.935358   -1.908307
H      -3.381516   -3.251087   -0.665966
H      -3.797919   -1.222741   -2.484977
H      -4.265703   -0.992083   -0.811302
H      -1.766209    0.043045   -2.187898
H      -3.355561    1.214414   -0.208397
