21

C       0.081658    1.572573    0.084682
C       0.031381    0.043276    0.038191
C      -1.397365   -0.508792   -0.035616
C      -1.435899   -2.039939   -0.082692
C      -2.866304   -2.632698   -0.058689
C      -3.702264   -2.288858   -1.307609
C      -2.796117   -4.088893    0.110442
N      -2.731148   -5.236381    0.234526
H       1.112744    1.935235    0.136394
H      -0.381269    2.012253   -0.805781
H      -0.451804    1.960449    0.959594
H       0.602222   -0.317182   -0.827539
H       0.532491   -0.368567    0.923852
H      -1.967978   -0.156454    0.835347
H      -1.895850   -0.088762   -0.918027
H      -0.919866   -2.402587   -0.980377
H      -0.881690   -2.440921    0.773613
H      -3.384522   -2.238801    0.826056
H      -3.842069   -1.208502   -1.386864
H      -3.203199   -2.642081   -2.214761
H      -4.688016   -2.757581   -1.257057
