19

O       0.561429    0.162092    0.848855
C      -0.194201    0.279403   -0.350516
C      -1.519733   -0.426516   -0.246200
C      -2.685493   -0.523037   -1.258331
C      -3.196389   -1.296302   -0.019312
C      -1.775973   -1.927475    0.162176
C      -1.530320   -2.026201    1.661339
O      -2.077410   -0.761738    2.103751
C      -2.567189   -0.207646    0.890500
H      -0.038235    0.330681    1.585761
H      -0.363239    1.337100   -0.616038
H       0.421576   -0.156316   -1.146369
H      -3.201878    0.408856   -1.508219
H      -2.499873   -1.117766   -2.156246
H      -4.154757   -1.798115    0.115857
H      -1.443836   -2.735033   -0.490629
H      -2.073311   -2.850548    2.139400
H      -0.470344   -2.083610    1.924827
H      -3.045552    0.755663    1.068081
