15

O       0.027557    1.453675    0.008363
C      -0.018804    0.057267   -0.066033
C      -1.406063   -0.546328   -0.017293
C      -2.041640   -0.534061   -1.392467
O      -1.623008    0.402879   -2.368950
C      -0.266059    0.287522   -2.523137
O       0.356344    0.919723   -3.323098
C       0.223482   -0.675105   -1.454321
C      -0.999425   -1.554345   -1.112710
H       0.944613    1.743325   -0.048441
H       0.624697   -0.419088    0.684539
H      -2.001399   -0.697715    0.874827
H      -3.089544   -0.783960   -1.483289
H       1.205146   -1.097279   -1.646181
H      -1.090237   -2.629752   -1.166216
