20

C      -0.460609    1.392241   -0.593110
O      -0.381807   -0.008922   -0.684105
C       0.900231   -0.508209   -0.351139
C       0.867994   -2.013863   -0.507184
C       0.873246   -2.605799   -1.919194
N       2.186047   -2.249529   -2.518148
C       2.073127   -3.435139   -1.628903
C       2.197808   -2.834836   -0.219874
O       3.376458   -2.124403    0.043642
H      -0.251238    1.749130    0.428274
H       0.245856    1.888561   -1.277706
H      -1.478514    1.683114   -0.865488
H       1.665135   -0.069502   -1.009453
H       1.165355   -0.241199    0.685479
H       0.040775   -2.421896    0.080861
H       0.023379   -2.825706   -2.552267
H       2.192006   -2.583098   -3.480115
H       2.360182   -4.419578   -1.977561
H       2.065640   -3.558755    0.586574
H       3.586736   -1.667839   -0.783165
