15

O       0.117555    1.371927    0.020825
C      -0.024593   -0.010641   -0.035511
C      -1.347690   -0.706071    0.037408
C      -2.542307    0.166612   -0.297308
O      -2.254658    0.767626   -1.578244
C      -1.269971    0.054749   -2.238235
N      -1.041455    0.138297   -3.475555
C      -0.528251   -0.768932   -1.254330
H      -0.514110    1.780542   -0.583323
H       0.801699   -0.484155    0.483252
H      -1.496523   -1.569238    0.674862
H      -3.463572   -0.420788   -0.377379
H      -2.700582    0.980292    0.417318
H      -1.721928    0.752842   -3.925517
H      -0.006755   -1.645466   -1.612557
