18

O      -0.065139    1.334523   -0.049364
C      -0.056045   -0.079216    0.046090
C      -1.515788   -0.556301    0.031982
C      -1.551545   -2.100974   -0.013270
C      -2.794596   -2.642630   -0.555740
N      -3.778869   -3.063825   -0.991550
C      -2.246321    0.025106    1.232038
C      -3.370942   -0.609070    1.926894
O      -2.050388   -0.641752    2.485892
H       0.816742    1.661095    0.149731
H       0.484974   -0.529570   -0.801054
H       0.427615   -0.419932    0.974507
H      -1.978474   -0.152190   -0.876093
H      -0.727733   -2.474973   -0.631235
H      -1.400863   -2.492002    0.998920
H      -2.159124    1.108149    1.292981
H      -4.083342    0.018326    2.460236
H      -3.763557   -1.566290    1.593333
