17

O      -0.118897    1.428659    0.077131
C      -0.071316    0.033721    0.042511
C      -0.616352   -0.781331    1.205593
C      -1.380514   -0.676808   -0.079546
C      -2.719301    0.001380   -0.358861
C      -2.814089   -0.974825   -1.574432
N      -1.699686   -1.774484   -0.998940
C      -4.063391   -1.711919   -1.761817
N      -5.060874   -2.275788   -1.912412
H       0.511746    1.736885    0.736878
H       0.778888   -0.390112   -0.496865
H      -0.128151   -1.721907    1.440742
H      -1.007382   -0.236250    2.059421
H      -3.481381   -0.187486    0.398326
H      -2.680322    1.062388   -0.600477
H      -2.565838   -0.469204   -2.515467
H      -0.972927   -2.019037   -1.664994
