16

C      -0.044799    1.394348   -0.134384
N      -0.012160   -0.042566   -0.016244
C      -1.223081   -0.847670    0.023295
C      -0.703180   -2.277492    0.012141
N       0.059421   -2.579684   -1.209620
C       0.775962   -2.214795    0.043300
C       1.161182   -0.753833    0.051722
O       2.279136   -0.285878    0.117485
H       0.987494    1.748434   -0.122850
H      -0.525454    1.707345   -1.069928
H      -0.590207    1.849461    0.702299
H      -1.803430   -0.641421    0.934294
H      -1.864282   -0.642944   -0.843983
H      -1.267220   -3.058147    0.508426
H       0.115746   -3.590279   -1.323072
H       1.418653   -2.932987    0.535869
