20

C      -0.053981    1.554934    0.170689
C      -0.083312    0.055241   -0.142612
N      -1.385176   -0.560299   -0.004802
C      -2.270921   -0.799048    1.136695
C      -3.230280    0.371991    1.508678
C      -4.256093   -0.131607    0.448359
C      -3.324856   -1.339723    0.116117
C      -2.268666   -1.019301   -0.959978
O      -2.189628   -1.082700   -2.160428
H       0.954171    1.951172    0.013600
H      -0.742746    2.102493   -0.479275
H      -0.331079    1.752734    1.210695
H       0.215884   -0.120888   -1.180814
H       0.635739   -0.473322    0.497341
H      -1.832268   -1.394532    1.940188
H      -3.606852    0.290929    2.531638
H      -2.826548    1.375639    1.365497
H      -5.213203   -0.430770    0.879374
H      -4.453004    0.535314   -0.393554
H      -3.735168   -2.347247    0.137726
