19

C       0.191181    1.394736    0.092131
O       0.351927   -0.031023    0.075092
C       0.444887   -0.589271   -1.160565
O       0.387771    0.062993   -2.174035
C       0.608473   -2.070790   -1.086703
C       0.765849   -2.709106    0.282535
O      -0.384920   -2.595586    1.098268
C      -0.139083   -2.838913   -2.169250
C       1.341843   -2.688714   -2.268754
H       1.035199    1.880349   -0.402722
H      -0.729989    1.683026   -0.419795
H       0.150114    1.676286    1.144313
H       0.940032   -3.781998    0.150112
H       1.653000   -2.293008    0.783137
H      -0.503344   -1.653228    1.260944
H      -0.554596   -3.795528   -1.873216
H      -0.749640   -2.253934   -2.846255
H       1.729912   -1.998052   -3.007500
H       1.971520   -3.545080   -2.053133
