23

C      -0.006384    1.728531   -0.000288
C       1.471716    1.235385    0.036762
C       0.993361    0.220003    1.126625
C       1.810363   -0.967020    1.637573
C       2.794246   -1.644700    0.682143
C       2.130499   -2.111741   -0.611350
C       1.863677   -0.962203   -1.584744
C       1.048236    0.235700   -1.097248
C      -0.081384    0.171788   -0.016752
H      -0.378299    2.226683    0.898536
H      -0.327694    2.243162   -0.909295
H       2.366583    1.861890    0.060679
H       0.593795    0.731038    2.011689
H       2.363977   -0.624046    2.521596
H       1.103086   -1.721688    2.011995
H       3.615875   -0.956105    0.440887
H       3.251890   -2.494577    1.202691
H       2.761834   -2.852808   -1.116259
H       1.189021   -2.625241   -0.371816
H       2.826575   -0.580984   -1.955494
H       1.351689   -1.365989   -2.468169
H       0.724600    0.781230   -1.992691
H      -0.989068   -0.435993   -0.040849
