24

C       0.149485    1.488916   -0.209226
C       0.014710   -0.018460    0.019183
O       0.666393   -0.415918    1.227326
C      -1.436754   -0.529403    0.097743
C      -1.462924   -2.064151    0.080284
C      -2.187677    0.052100    1.307420
N      -3.606882   -0.303517    1.282785
C      -4.031806   -1.406987    2.139432
C      -4.355543   -0.000440    2.497503
H       1.204031    1.761677   -0.336068
H      -0.380980    1.798045   -1.115922
H      -0.241916    2.060581    0.636510
H       0.485503   -0.531675   -0.836688
H       1.580867   -0.120595    1.183846
H      -1.948922   -0.167665   -0.803195
H      -2.488146   -2.440294    0.061281
H      -0.949197   -2.449194   -0.807454
H      -0.955379   -2.470352    0.960218
H      -1.693463   -0.267810    2.239709
H      -2.136945    1.145845    1.276886
H      -4.793675   -2.062880    1.726962
H      -3.274208   -1.909487    2.738542
H      -3.812788    0.433979    3.336108
H      -5.357595    0.393692    2.351644
