17

O       0.122344    1.397608   -0.340891
C       0.041129    0.040103    0.001089
C       0.239874   -0.984920   -1.141869
O      -1.067305   -1.556432   -0.900212
C      -1.394058   -0.533502    0.075620
C      -1.532203   -1.190585    1.453919
O      -2.559011   -1.423121    2.033072
C      -0.109585   -1.461437    1.954728
C       0.724256   -0.319457    1.340605
H       1.036739    1.685825   -0.244632
H       0.301996   -0.517813   -2.131655
H       1.041812   -1.724374   -1.025563
H      -2.236937    0.095217   -0.219498
H      -0.076052   -1.511015    3.043976
H       0.204937   -2.437646    1.566098
H       1.780593   -0.576280    1.211710
H       0.667971    0.565151    1.984668
