16

O       0.529728    0.725459   -0.662661
C       0.229195   -0.325204    0.198358
C      -0.006791   -0.074574    1.727458
C      -1.231580   -1.041274    1.673627
C      -1.201726   -0.880147    0.156667
O      -2.182717   -0.087139   -0.509254
C      -1.999209   -1.448140   -0.942208
C      -1.430039   -1.639938   -2.258033
N      -0.987064   -1.829058   -3.308485
H      -0.299015    1.181808   -0.858313
H       0.973130   -1.113422    0.042048
H       0.809911   -0.331823    2.402903
H      -0.314139    0.958929    1.904037
H      -0.988929   -2.059403    1.988344
H      -2.152296   -0.720284    2.163181
H      -2.830298   -2.111333   -0.710152
