17

O       0.784304   -0.104673   -0.480550
C      -0.192353    0.469500    0.380501
C      -1.560983   -0.176469    0.245782
N      -2.603825    0.534895    0.446608
C      -3.878067   -0.164433    0.498599
C      -3.989001   -1.460823   -0.292344
O      -5.042755   -1.919361   -0.659950
C      -2.677774   -2.172474   -0.622861
N      -1.526201   -1.525533   -0.017940
H       0.609938    0.207420   -1.374635
H       0.179007    0.303182    1.397924
H      -0.310248    1.548211    0.238040
H      -4.104308   -0.427932    1.546040
H      -4.690161    0.496003    0.178647
H      -2.759717   -3.212106   -0.286997
H      -2.610497   -2.198104   -1.721490
H      -0.616005   -1.855544   -0.309652
