21

O       0.150061    1.418594   -0.081242
C       0.031261    0.006763   -0.004604
C       0.726392   -0.616007    1.248791
C      -0.436232   -1.238858    2.055837
C      -1.321470   -1.785727    0.918583
C      -1.443195   -0.529984    0.034540
C      -2.406286    0.464478    0.708685
C      -2.101200    0.611481    2.180699
C      -1.200580   -0.157516    2.797761
H      -0.123847    1.776798    0.770441
H       0.515433   -0.352243   -0.917385
H       1.439989   -1.392038    0.950596
H       1.285859    0.146276    1.798296
H      -0.095492   -2.011766    2.749913
H      -0.810246   -2.598215    0.389529
H      -2.288410   -2.160945    1.266580
H      -1.800751   -0.750624   -0.974874
H      -2.340242    1.438186    0.209307
H      -3.445092    0.130890    0.572992
H      -2.647416    1.371764    2.734617
H      -0.982359   -0.012255    3.852882
