15

O      -0.128804    1.444312   -0.139800
C       0.013385    0.034448    0.041013
C      -1.405323   -0.505771    0.051857
O      -2.196554    0.144089    0.994740
C      -2.037569   -0.817901   -1.356523
O      -1.139344   -1.997413   -1.427010
C      -1.589715   -2.042243   -0.012273
C      -3.007114   -1.784182   -0.619921
O      -4.109561   -2.211227   -0.642704
H       0.715333    1.866078    0.042835
H       0.596889   -0.428135   -0.760698
H       0.486177   -0.189489    1.007965
H      -1.935287    1.074876    0.964906
H      -2.139664   -0.202050   -2.247326
H      -1.191123   -2.828413    0.626036
