23

C       0.014928    1.505910    0.298640
C       0.007461    0.025554   -0.047268
C       1.017628   -0.415061   -1.111325
C       1.249993   -1.892221   -0.753277
C       2.526085   -2.499849   -1.328863
C       1.152970   -1.838921    0.771801
C       1.048186   -3.043441    1.652191
C       2.281413   -2.154060    1.715751
O       0.345281   -0.730236    1.123103
H       1.015426    1.820893    0.611133
H      -0.287072    2.104318   -0.567294
H      -0.681033    1.712258    1.116701
H      -1.006916   -0.263904   -0.369582
H       0.650524   -0.268948   -2.130788
H       1.951198    0.151139   -1.000390
H       0.391256   -2.471727   -1.120536
H       3.408974   -1.927035   -1.027652
H       2.666021   -3.535158   -0.999162
H       2.488380   -2.507668   -2.422794
H       0.346357   -2.987178    2.476766
H       1.145651   -4.027902    1.204009
H       3.216527   -2.540871    1.326551
H       2.378970   -1.504004    2.577993
