19

C       0.004951    1.575682    0.262342
C       1.519811    1.573552   -0.114743
C       2.604741    0.904316    0.868033
C       2.356115    0.808437    2.400295
C       1.019733    0.058233    2.395197
C       0.845963   -0.516446    1.193992
C      -0.050649    0.028908    0.047604
C       1.279235    0.166137   -0.797000
C       2.111897   -0.457675    0.339981
H      -0.322718    1.971100    1.227954
H      -0.537466    2.088741   -0.542334
H       1.881870    2.445655   -0.658655
H       3.616151    1.220192    0.587133
H       3.200965    0.311806    2.900403
H       2.227088    1.779131    2.895471
H       0.216021    0.343968    3.067267
H      -0.967950   -0.447702   -0.298921
H       1.369451   -0.040593   -1.860984
H       2.756643   -1.333656    0.245056
