21

C      -0.315256    1.471376   -0.652038
C       0.009687    0.221612    0.176751
C      -1.231550   -0.583050    0.478696
O      -1.817178   -1.326744   -0.601869
C      -1.324872   -2.055001    0.539063
C      -0.138158   -2.961302    0.289452
C      -2.433123   -2.677821    1.383190
C      -3.124193   -3.813220    0.652155
O      -3.303857   -4.913429    1.107893
H       0.588928    2.050459   -0.860137
H      -0.769471    1.190536   -1.606747
H      -1.018444    2.125397   -0.125116
H       0.740201   -0.393102   -0.355981
H       0.470844    0.513220    1.129426
H      -1.971355   -0.033529    1.068648
H       0.571328   -2.512585   -0.406086
H       0.380134   -3.182984    1.228558
H      -0.468197   -3.915046   -0.136265
H      -2.050025   -3.053271    2.336772
H      -3.193554   -1.913213    1.587157
H      -3.471061   -3.546380   -0.370386
