19

C      -0.049564    1.619851   -0.044960
C       0.001464    0.090210    0.026187
C       0.721467   -0.507209   -1.186907
C       0.745608   -2.070341   -1.235394
C       1.502507   -2.691162   -0.030857
C      -0.635756   -2.589017   -1.262703
N      -1.723505   -2.976878   -1.247020
C       1.422933   -2.478058   -2.481160
N       1.991964   -2.771082   -3.442372
H       0.956663    2.051619   -0.074735
H      -0.583403    1.957313   -0.939469
H      -0.564291    2.033134    0.826897
H       0.506450   -0.211682    0.950630
H      -1.017392   -0.310492    0.079767
H       0.249682   -0.150834   -2.108433
H       1.764692   -0.173178   -1.215938
H       0.983348   -2.457135    0.899495
H       1.562596   -3.775984   -0.133916
H       2.515270   -2.283169    0.008576
