19

O      -0.129317    1.448491    0.075651
C      -0.070498    0.041002    0.248406
C      -1.363684   -0.548113   -0.306256
C      -1.395635   -2.056317   -0.189390
C      -1.810622   -2.733379    1.096857
C      -2.715186   -2.796324   -0.126389
O      -3.855085   -1.977934   -0.136518
C      -2.856390   -4.048775   -0.824657
C      -3.004055   -5.100152   -1.390662
H       0.683388    1.828399    0.421453
H       0.794634   -0.390143   -0.282423
H       0.034061   -0.229580    1.311502
H      -2.213815   -0.110420    0.223032
H      -1.460391   -0.250480   -1.356754
H      -0.628740   -2.574912   -0.758297
H      -1.301866   -3.636586    1.412955
H      -2.170711   -2.094782    1.897005
H      -4.560564   -2.454728    0.314794
H      -3.128506   -6.021714   -1.903244
