17

O      -0.216097    0.323218   -0.581053
C       0.109407    1.186202    0.202303
C       1.372041    1.950706    0.156125
C       1.679715    3.176268    1.103107
C       2.648276    3.546048   -0.029635
C       3.900269    3.057248    0.081795
C       3.999577    1.727006   -0.657350
C       2.501918    1.447005   -0.873354
C       1.843056    2.744084   -1.065437
H      -0.563113    1.476486    1.041913
H       0.772590    3.784910    1.200665
H       2.122374    2.998813    2.086863
H       4.510509    3.233571    0.962899
H       4.526073    1.708584   -1.622447
H       4.507543    1.006664   -0.005490
H       2.162253    0.570966   -1.417790
H       1.223676    3.104101   -1.876379
