17

C      -0.215201    1.378135   -0.252607
O      -0.285037   -0.028218   -0.333196
C       0.919777   -0.607591   -0.815465
C       0.690565   -2.062361   -0.992257
C      -0.361072   -2.800093   -1.446802
N      -1.576202   -2.373204   -1.960481
N      -0.039093   -4.147896   -1.376799
C       1.164064   -4.161425   -0.896896
O       1.683806   -2.952827   -0.628616
H       0.570214    1.704976    0.446024
H      -0.014219    1.834718   -1.234261
H      -1.182094    1.731378    0.112784
H       1.202602   -0.114798   -1.763422
H       1.750149   -0.446454   -0.109608
H      -1.862626   -1.484967   -1.570024
H      -2.295370   -3.077926   -1.869717
H       1.786943   -5.018164   -0.693067
