22

C       0.745835   -0.425035   -1.421425
C       0.017988    0.027359   -0.149221
C       0.602302   -0.599972    1.106307
O       1.899892   -0.108960    1.247584
C      -0.233356   -0.720885    2.439763
C      -1.070140   -1.853238    1.792262
C       0.412352   -2.132552    1.442116
N       0.831092   -1.733956    2.855653
C       0.574136   -2.638408    3.968340
H       0.616723   -1.499684   -1.591319
H       0.357867    0.099176   -2.299971
H       1.816205   -0.222473   -1.342373
H       0.121781    1.112834   -0.036561
H      -1.050933   -0.176893   -0.238260
H       2.216995   -0.551180    2.054396
H      -0.553171    0.073376    3.118200
H      -1.538646   -2.553806    2.481410
H      -1.761407   -1.603120    0.987504
H       0.852495   -3.001753    0.948335
H       1.322160   -3.437755    3.944352
H       0.710803   -2.084429    4.902952
H      -0.419871   -3.108122    3.998353
