14

C       0.250595    1.022405   -0.332323
O      -0.277533    0.199932    0.717611
C      -1.335408   -0.566855    0.359525
C      -1.378472   -1.889563   -0.033267
O      -0.337526   -2.750516   -0.207935
C      -2.747487   -2.164653   -0.224229
N      -3.502809   -1.095763    0.032867
N      -2.629695   -0.133983    0.381840
H       1.114194    1.541761    0.086809
H       0.562027    0.413487   -1.188548
H      -0.490227    1.757270   -0.668091
H       0.447302   -2.346905    0.179840
H      -3.202124   -3.092523   -0.536303
H      -2.967725    0.761080    0.691953
