23

C       0.219599    1.420483   -0.526273
C       0.057090   -0.025382   -0.053494
C      -1.403303   -0.452640    0.023960
O       0.698033   -0.966021   -0.920768
C       2.087156   -0.889954   -0.941383
C       2.811925   -1.836194   -1.861599
C       2.827616   -0.339733   -2.131071
C       2.083285    0.203493   -3.326670
O       3.993132    0.365058   -1.782093
H       1.273881    1.702699   -0.591415
H      -0.238002    1.556608   -1.511365
H      -0.269080    2.102662    0.177035
H       0.512896   -0.119561    0.946694
H      -1.874699   -0.373920   -0.961025
H      -1.480581   -1.490250    0.358792
H      -1.954451    0.183814    0.722413
H       2.551597   -0.698908    0.026591
H       3.718316   -2.301129   -1.490058
H       2.199063   -2.455089   -2.508504
H       1.115124   -0.290073   -3.437083
H       1.913149    1.278565   -3.211352
H       2.655952    0.047682   -4.249226
H       4.652750    0.203539   -2.466547
