15

C      -0.501293    1.202274   -0.350926
O       0.639671    1.524256    0.446543
C       0.324893    0.145350    0.247243
C      -0.137735   -0.601955    1.438777
O      -1.260793   -0.118595    2.228462
C      -0.891430   -1.341974    2.925118
C      -0.504705   -2.117869    1.627570
O       0.814267   -2.497548    2.103370
C       0.638417   -1.172878    2.680308
H      -1.462704    1.434383    0.101109
H      -0.406932    1.414752   -1.414609
H       1.031229   -0.403550   -0.375791
H      -1.456471   -1.640304    3.806519
H      -1.067397   -2.807573    0.999079
H       1.430073   -0.743211    3.292062
