23

C      -0.201052    1.699133   -0.202264
C      -0.027074    0.225167    0.182974
C      -1.348437   -0.511951    0.267309
C      -1.985443   -1.124590   -0.955533
C      -1.465230   -2.018497    0.146256
C      -0.286145   -2.952154   -0.015472
C       0.357737   -3.102651   -1.376563
C       0.487935   -3.306221    1.188556
O      -0.481834   -4.210644    0.660751
H       0.763337    2.214481   -0.250448
H      -0.685752    1.795297   -1.179386
H      -0.824400    2.226249    0.528409
H       0.631321   -0.264203   -0.543569
H       0.489752    0.159784    1.149563
H      -2.041205   -0.066682    0.978931
H      -3.058187   -1.046936   -1.094734
H      -1.418799   -1.083083   -1.880276
H      -2.218285   -2.471609    0.783895
H       0.794660   -2.163547   -1.729790
H       1.149314   -3.854528   -1.332729
H      -0.383341   -3.425166   -2.114994
H       1.526556   -3.624071    1.095368
H       0.229987   -2.849991    2.143889
