19

C      -0.707268    1.170545   -0.090855
C       0.049880   -0.143827   -0.143457
C       1.350956   -0.274496   -0.977402
O       2.018267    0.979794   -0.999322
C       1.908034   -1.237243    0.104627
C       0.860038   -0.638038    1.116677
N       1.312822    0.471493    1.947790
C       0.178686   -1.623829    1.956170
N      -0.349910   -2.431548    2.592354
H      -0.053784    2.006371    0.161448
H      -1.164745    1.380414   -1.063257
H      -1.503855    1.122367    0.657129
H      -0.620055   -0.955243   -0.442502
H       1.243292   -0.676375   -1.991813
H       2.887176    0.849590   -1.393060
H       1.711872   -2.286236   -0.130438
H       2.957262   -1.113116    0.385214
H       1.942970    0.130875    2.668557
H       1.836565    1.116899    1.362727
