17

C       0.034102    1.449941    0.152481
N       0.040014   -0.002994    0.081851
C       0.002738   -0.753593   -1.072659
C      -0.052753   -2.061010   -0.669241
N      -0.057476   -2.139027    0.701198
C      -0.013232   -0.891753    1.125552
C       0.033302   -0.477176    2.566207
C       1.456858   -0.084347    2.935825
O       1.826723    1.052782    3.088685
H       0.540729    1.782380    1.059488
H       0.568169    1.853682   -0.710083
H      -0.988587    1.843020    0.147358
H       0.018238   -0.288423   -2.044798
H      -0.086630   -2.946679   -1.285131
H      -0.632182    0.363362    2.782679
H      -0.269569   -1.346120    3.156622
H       2.163707   -0.938301    3.013310
