17

C      -0.044085    1.534332    0.075534
C      -0.060395    0.040409    0.088488
C       0.133331   -0.971915    1.161317
C      -0.619835   -2.034392    0.304500
N       0.405006   -2.721746   -0.498747
C       1.360023   -1.884323   -0.555827
N       1.254138   -0.692138    0.241291
C      -1.130985   -0.836726   -0.580400
O      -2.382984   -0.327513   -0.179247
H       0.681194    1.918415    0.796860
H       0.228860    1.911727   -0.916338
H      -1.038123    1.917078    0.323475
H       0.272925   -0.883805    2.233022
H      -1.367845   -2.696145    0.736188
H       2.257370   -2.023585   -1.149798
H      -1.078374   -0.998969   -1.665726
H      -3.061369   -0.945117   -0.471164
