17

O       0.198757   -0.171437    0.265845
C       0.091218    1.030977    0.250834
C       1.246554    1.979607    0.084285
C       1.360723    2.852791   -1.214577
C       0.064405    3.630433   -1.578539
C       0.334331    4.594065   -0.403720
O       0.005972    3.986701    0.870007
C       1.271990    3.294973    0.916855
C       1.799067    4.073929   -0.316153
H      -0.899172    1.519654    0.364909
H       2.181459    1.428348    0.225096
H       1.949151    2.430629   -2.027456
H       0.205252    4.153056   -2.530709
H      -0.895108    3.108159   -1.596824
H       0.000816    5.631648   -0.457233
H       1.695667    3.276752    1.922426
H       2.716346    4.650564   -0.390587
