14

O       0.012408    0.349929    0.852079
C      -0.011795    1.355001    0.194606
C      -1.267341    2.104327   -0.281329
C      -0.737683    3.413225   -0.821507
C       0.082407    4.244009    0.095304
N       0.753014    3.394354   -0.897102
C       1.210300    2.117875   -0.345468
H      -1.752123    1.505726   -1.061975
H      -1.982091    2.203804    0.540146
H      -1.239838    3.876543   -1.664875
H       0.184148    5.311572   -0.075125
H       0.127045    3.949619    1.144124
H       1.962159    2.251217    0.438357
H       1.670324    1.518477   -1.141442
