18

C       0.157568    1.551207   -0.135318
C       0.005252    0.042453    0.053218
O       0.577980   -0.648357   -1.059438
C       1.434617   -1.708187   -0.636326
C       2.763242   -1.642466   -1.381556
C       1.533266   -1.508037    0.869225
C       0.720463   -0.520275    1.249282
C       2.363455   -2.303264    1.699673
N       3.054167   -2.973791    2.344340
H       1.214559    1.829507   -0.165075
H      -0.309423    1.853654   -1.076256
H      -0.329870    2.093032    0.681433
H      -1.070838   -0.197913    0.118269
H       0.952201   -2.677199   -0.846488
H       3.273527   -0.698184   -1.172255
H       3.412480   -2.470691   -1.081629
H       2.586066   -1.713030   -2.457867
H       0.569480   -0.166686    2.260836
