16

O      -0.071185    0.058135   -0.351530
C      -0.022632    1.202560   -0.009970
O      -1.134938    1.882493    0.408594
C      -0.834259    3.209020    0.889114
C       0.632829    3.484008    0.545319
C       1.166557    2.147910    0.012612
C       1.453702    2.891411   -1.306343
C       0.251112    3.545008   -1.849900
N       0.964850    4.217199   -0.742152
H      -1.521906    3.912936    0.411781
H      -1.009421    3.224223    1.969519
H       1.178810    3.951785    1.363458
H       2.036271    1.703067    0.491844
H       2.384926    2.811512   -1.855593
H       0.367077    4.082912   -2.785406
H      -0.737500    3.120474   -1.699751
