19

C      -0.007796    1.481831   -0.075717
C      -0.042451   -0.002658    0.240845
O      -1.242319   -0.542353   -0.293701
C      -1.379303   -1.915199   -0.111330
C      -1.960122   -2.370946    1.259755
N      -3.296581   -2.493731    0.633189
C      -2.716310   -2.438000   -0.724684
C      -3.416399   -1.571271   -1.673574
N      -3.976542   -0.919634   -2.445545
H       0.908888    1.931276    0.317196
H      -0.042143    1.643038   -1.156427
H      -0.865852    1.988922    0.373491
H       0.825069   -0.519575   -0.201932
H      -0.000035   -0.168309    1.328919
H      -0.481414   -2.451820   -0.445766
H      -1.521549   -3.313216    1.613820
H      -1.917425   -1.629642    2.063768
H      -3.819652   -3.335272    0.843787
H      -2.568369   -3.415699   -1.204161
