19

C       0.036935    1.438536    0.058546
C       1.357188    0.702163   -0.085166
C       1.741305    0.109738    1.277333
C       0.417563   -0.729923    1.280821
C       0.633367   -2.218669    0.983462
O      -0.413079   -2.716698    0.152329
C      -0.426050   -2.054921   -1.077479
O      -0.773941   -0.685784   -0.960518
C       0.004154   -0.040898   -0.019801
H      -0.212579    1.966243    0.978018
H      -0.302976    1.927106   -0.849612
H       2.028017    0.901726   -0.911133
H       2.638174   -0.514720    1.261992
H       1.838662    0.837522    2.089303
H      -0.263355   -0.597363    2.128449
H       1.598218   -2.365465    0.470705
H       0.630753   -2.827958    1.890368
H       0.563468   -2.139128   -1.563355
H      -1.198688   -2.517459   -1.693629
