17

O       0.058437    1.440879   -0.026685
C      -0.011080    0.035211    0.046034
C       0.276995   -0.688563    1.375407
O       1.490458   -1.286358    1.664883
C      -0.740294   -0.346364    2.418834
C      -1.110819   -1.341037    1.332984
C      -1.430567   -0.553215    0.083371
C      -2.681580    0.020823   -0.404653
O      -2.045994   -1.090886   -1.068152
H       0.961078    1.692606   -0.244153
H       0.554316   -0.450740   -0.760558
H       1.942749   -0.754189    2.327475
H      -0.551632   -0.798095    3.388232
H      -1.202518    0.636724    2.451130
H      -1.404748   -2.360861    1.542145
H      -3.617674   -0.214049    0.099862
H      -2.660404    0.960102   -0.953712
