18

O       0.002420   -0.052329   -0.024141
C      -0.040511    1.157124   -0.008135
C      -1.306994    2.034596   -0.004163
C      -0.801994    3.478928    0.083406
C      -0.726123    4.202136    1.441619
C       0.018258    3.394034    2.464643
C       0.808044    4.137556    1.427895
C       0.762271    3.404650    0.068787
N       1.050530    1.994724    0.004028
H      -1.870678    1.829902   -0.918853
H      -1.939461    1.738164    0.837231
H      -1.200461    4.122275   -0.701086
H      -1.363344    5.030112    1.727089
H       0.046597    3.831754    3.457117
H      -0.015445    2.308383    2.467295
H       1.525740    4.905496    1.689338
H       1.249149    3.965305   -0.733501
H       1.977774    1.600512    0.038588
