19

C      -0.187843    1.520492    0.061858
C      -0.019179   -0.001055   -0.026895
C       0.795559   -0.407756   -1.259092
O       0.097008    0.031731   -2.413734
C       0.613332   -0.602462    1.226669
O       1.890508   -0.016278    1.602726
C       1.452507    0.353797    2.925545
C       0.057621   -0.195265    2.601589
O      -0.994536   -0.266087    3.157458
H       0.777312    2.001237    0.250556
H      -0.584063    1.903435   -0.879969
H      -0.877268    1.799880    0.864535
H      -1.008679   -0.469176   -0.121346
H       1.797079    0.044095   -1.196648
H       0.925205   -1.502395   -1.269275
H       0.667503   -0.092381   -3.177391
H       0.704089   -1.694812    1.124029
H       1.987894   -0.180072    3.721289
H       1.505478    1.433978    3.109628
