22

C      -0.125786    1.502861   -0.052809
O      -0.073193    0.119252    0.194353
C      -1.306917   -0.572173    0.025695
C      -1.643172   -0.778266   -1.455250
C      -1.192377   -1.895775    0.774043
C       0.020033   -2.829483    0.482151
C       0.093199   -3.142143    2.001339
C      -0.766777   -1.877704    2.268418
H       0.851343    1.915218    0.212670
H      -0.325476    1.740739   -1.108075
H      -0.895813    1.996750    0.561103
H      -2.110457    0.023474    0.495493
H      -2.597970   -1.303577   -1.559902
H      -1.729609    0.173057   -1.987976
H      -0.865495   -1.373899   -1.943329
H      -2.134386   -2.441538    0.649969
H      -0.133670   -3.666499   -0.203456
H       0.881957   -2.247403    0.147787
H      -0.444737   -4.061041    2.253126
H       1.083761   -3.185470    2.460353
H      -0.145110   -1.003706    2.476011
H      -1.555593   -1.944794    3.022314
