16

O       0.150912    1.402460   -0.090036
C       0.046115    0.029961   -0.018233
C       0.648669   -0.867675   -1.128090
C      -0.650226   -1.731964   -1.164162
C      -1.285435   -0.848106   -0.059132
O      -1.012705   -1.343352    1.261542
C       0.168443   -0.514118    1.409829
C      -2.623259   -0.329032   -0.239122
N      -3.671461    0.123126   -0.425319
H       0.079915    1.683994   -1.008693
H       0.808437   -0.313638   -2.058126
H       1.580038   -1.377097   -0.870120
H      -1.178715   -1.690408   -2.118164
H      -0.549585   -2.771415   -0.849950
H       1.061885   -1.102358    1.644369
H       0.018761    0.263085    2.166777
