23

C       0.002386    1.655906    0.253810
C       0.002349    0.144054    0.103071
C      -1.303928   -0.432014   -0.435500
C      -1.656926    0.016384   -1.851615
O      -2.844298   -0.667624   -2.228941
C       1.222508   -0.641622   -0.323158
C       2.528370   -0.045597    0.219448
C       1.969820   -0.184401    1.673330
C       0.670944   -0.770039    1.105445
H       0.904419    2.029734    0.742078
H      -0.069830    2.158218   -0.717118
H      -0.854316    1.979834    0.856658
H      -1.252054   -1.526993   -0.439891
H      -2.134039   -0.161370    0.229375
H      -1.805505    1.106491   -1.883515
H      -0.825141   -0.220123   -2.534536
H      -3.096213   -0.368750   -3.107330
H       1.165028   -1.357460   -1.136098
H       3.388815   -0.696215    0.048589
H       2.787143    0.960728   -0.125300
H       2.533061   -0.917164    2.255480
H       1.881365    0.728906    2.270580
H       0.123095   -1.594365    1.548914
