19

C       0.067574    1.573514    0.019585
C       1.346264    0.812502    0.032051
N       0.064856    0.113481   -0.035816
C      -0.345040   -0.556169    1.172390
C      -1.652573   -1.248330    1.429827
C      -2.094505   -2.253576    0.350215
C      -1.204278   -2.392141   -0.821723
N      -0.822025   -3.043911    0.457369
C      -0.336072   -2.030859    1.469537
H      -0.241130    2.043996    0.951705
H      -0.269341    2.080375   -0.879746
H       1.965329    0.750619   -0.857988
H       1.894338    0.773927    0.972053
H      -0.039455   -0.028196    2.086843
H      -2.305584   -0.956312    2.242641
H      -3.052723   -2.758422    0.424189
H      -1.500087   -3.136228   -1.557343
H      -0.642081   -1.547712   -1.192385
H       0.220482   -2.436514    2.306304
