13

C      -0.031971    1.481794    0.037348
C      -0.009281   -0.014781    0.000953
N      -0.048747   -0.565279   -1.165947
O      -0.028453   -1.960513   -1.225213
C       0.030078   -2.687285   -0.103781
C       0.073477   -2.178545    1.142009
C       0.056340   -0.742915    1.304228
O       0.091152   -0.135206    2.363003
H       0.860546    1.851549    0.551284
H      -0.080796    1.891551   -0.971778
H      -0.889903    1.823210    0.624547
H       0.037627   -3.745900   -0.342380
H       0.120224   -2.826417    2.007601
