24

C       0.239086    1.531341   -0.149323
C      -0.097276    0.055525    0.064795
O       0.011938   -0.679359   -1.154945
C       0.742175   -0.581256    1.179683
C       0.365129   -2.042904    1.457388
C       1.202902   -2.677540    2.548532
C       1.389002   -4.155022    2.627453
N       2.520887   -3.285400    2.327786
C       3.083092   -3.358166    0.988581
H       1.298510    1.654614   -0.408332
H      -0.361835    1.943837   -0.964288
H       0.049416    2.117615    0.755553
H      -1.158490   -0.032139    0.332277
H       0.916213   -0.577562   -1.473162
H       1.804770   -0.514660    0.903892
H       0.629743    0.012653    2.096361
H      -0.687732   -2.086297    1.768922
H       0.423565   -2.611725    0.525960
H       1.163701   -2.131808    3.492427
H       1.416450   -4.670795    3.584364
H       0.971230   -4.742947    1.809402
H       2.354163   -3.562349    0.188797
H       3.596174   -2.418818    0.755643
H       3.828788   -4.159842    0.969148
