15

O       0.061613   -0.050783   -0.170990
C       0.050347    1.153880   -0.067681
N      -1.057225    1.944824    0.121559
C      -0.829498    3.388681    0.122034
C      -1.396566    4.068504    1.284982
C      -1.892519    4.643814    2.215252
C       0.701808    3.476871    0.023182
N       1.378048    2.834678    1.152298
C       1.228229    2.102379   -0.133640
H      -1.948978    1.541467    0.360093
H      -1.260033    3.837179   -0.785837
H      -2.316721    5.145097    3.050149
H       1.137577    4.341267   -0.462522
H       2.329809    3.190089    1.216674
H       2.095473    1.836850   -0.724336
