19

N       0.112895    0.855494    1.014922
C       0.073954   -0.129298    0.221603
O       1.201060   -0.658898   -0.337794
C       1.049667   -1.854572   -1.118982
C       0.168713   -2.857524   -0.389327
N      -1.154927   -2.273822   -0.257402
C      -1.906960   -2.400033    1.009586
C      -2.301671   -0.904140    0.910753
C      -1.224862   -0.788851   -0.191797
H       1.077913    1.166501    1.147072
H       0.621324   -1.609865   -2.100007
H       2.060763   -2.237393   -1.269159
H       0.134497   -3.801648   -0.949371
H       0.628072   -3.071825    0.592086
H      -2.714303   -3.139107    0.983184
H      -1.261628   -2.617362    1.875115
H      -3.313050   -0.742023    0.536769
H      -2.124060   -0.284645    1.787465
H      -1.549683   -0.335277   -1.137894
