16

C      -0.253735    1.473757   -0.025974
C       0.085975    0.014068    0.008030
O      -1.070585   -0.860569    0.109901
C      -0.476585   -1.626469    1.179600
C       0.829115   -0.814461    1.110284
N       1.783401   -1.222535    0.077485
C       1.106780   -0.583576   -0.972111
N       1.221187   -0.503731   -2.226413
H       0.655472    2.081634   -0.004726
H      -0.787408    1.697090   -0.955187
H      -0.892076    1.747899    0.818302
H      -1.037380   -1.500507    2.114314
H      -0.394766   -2.694212    0.943768
H       1.266501   -0.418868    2.026755
H       2.250930   -2.118406    0.023624
H       1.977316   -1.091567   -2.582877
