17

C      -0.022395    1.534882   -0.007744
C       0.006064    0.025087    0.048519
C      -1.235418   -0.749283   -0.260705
C      -1.370441   -1.850815    0.494814
C      -0.245477   -1.932663    1.475317
O      -0.106437   -2.749831    2.355478
C       0.680088   -0.781774    1.155565
C       1.279777   -0.750845   -0.252338
O       1.384604   -1.839071   -1.097411
H       0.961032    1.953908    0.224637
H      -0.305745    1.885858   -1.006614
H      -0.739343    1.946927    0.710715
H      -1.908643   -0.441755   -1.054755
H      -2.156045   -2.593535    0.442533
H       1.242947   -0.332002    1.964454
H       2.176580   -0.144874   -0.344542
H       0.553591   -2.330457   -1.078037
