21

C      -0.061389    1.333212    0.045598
O       0.111718   -0.068203    0.017390
C       0.704485   -0.563299   -1.136644
C      -0.002774   -0.551772   -2.535550
C       0.974756   -1.729274   -2.803773
C       2.351819   -1.036195   -2.760693
C       2.149682   -0.139945   -1.497724
C       0.759405   -2.095490   -1.301936
O       1.768073   -2.754031   -0.578658
H       0.896950    1.870662    0.061734
H      -0.645847    1.689773   -0.815340
H      -0.608165    1.567415    0.961987
H      -1.048861   -0.859276   -2.473367
H       0.101759    0.338457   -3.159991
H       0.791668   -2.450000   -3.600198
H       3.163965   -1.753378   -2.624680
H       2.548397   -0.456809   -3.667035
H       2.225003    0.927168   -1.721896
H       2.846049   -0.380221   -0.692309
H      -0.228356   -2.537726   -1.124294
H       1.692191   -3.699064   -0.739902
