22

C      -0.000410    1.526984    0.385318
O       0.019928    0.118332    0.414074
C      -1.152337   -0.550358   -0.039411
C      -2.341591   -0.292243    0.899072
C      -1.505064   -0.248495   -1.526506
C      -2.122407   -1.552503   -2.085205
C      -1.454734   -2.647119   -1.270323
N       0.009471   -2.462302   -1.181651
C      -0.852005   -2.043086   -0.058745
H       0.996672    1.859220    0.686306
H      -0.208110    1.923246   -0.618876
H      -0.731210    1.958959    1.084733
H      -2.646294    0.758000    0.884731
H      -3.207770   -0.889409    0.597672
H      -2.081166   -0.560067    1.927988
H      -2.174643    0.608196   -1.637840
H      -0.573443   -0.028551   -2.051449
H      -3.205426   -1.582968   -1.917050
H      -1.954558   -1.661466   -3.161511
H      -1.861281   -3.653662   -1.266769
H       0.447038   -3.348696   -0.943364
H      -0.784825   -2.572431    0.886652
