18

C      -0.020017    1.463856    0.067391
C      -0.000296   -0.028548   -0.015843
C      -0.032608   -0.797411   -1.126212
C       0.004496   -2.212027   -0.753311
C       0.060472   -2.274310    0.622876
C       0.063585   -0.910676    1.237550
N       0.096016   -3.583918    1.000448
C       0.062964   -4.369417   -0.138842
C       0.005624   -3.546277   -1.246023
H       0.875595    1.859479    0.565365
H      -0.069828    1.910508   -0.929861
H      -0.881448    1.832017    0.640929
H      -0.079166   -0.416139   -2.139588
H       0.964493   -0.694622    1.828492
H      -0.793825   -0.722226    1.898508
H       0.138968   -3.938188    1.939775
H       0.083024   -5.444749   -0.061830
H      -0.030138   -3.881497   -2.271404
