17

C       0.160455    1.557787    0.044212
N       1.259691    0.607254   -0.134264
C      -0.106646    0.085932    0.031167
C      -0.411942   -0.669907    1.276032
C       0.462046   -0.689776    2.364128
C       0.098648   -1.396202    3.505334
N      -1.047612   -2.071883    3.636675
C      -1.875113   -2.052931    2.588454
C      -1.607863   -1.378604    1.401462
H       0.162601    2.082775    0.995257
H      -0.180361    2.144994   -0.804606
H       1.539297    0.557949   -1.109545
H      -0.614433   -0.288339   -0.855631
H       1.413780   -0.175480    2.302494
H       0.769159   -1.425512    4.361434
H      -2.803291   -2.609041    2.700861
H      -2.324761   -1.406355    0.586451
