18

O      -0.044893    1.374190   -0.005158
C      -0.014809   -0.011249    0.005552
C       0.294522   -0.878361    1.279105
C      -0.447279   -1.944196    0.425338
C      -1.356260   -0.789572   -0.080657
N       0.468884   -2.104329   -0.711850
C       0.831882   -0.731344   -1.077864
C       1.069750   -3.225689   -1.165889
O       1.927886   -3.251359   -2.025937
H       0.859528    1.706511    0.012000
H       1.336233   -1.078514    1.542444
H      -0.279462   -0.544797    2.144667
H      -0.826544   -2.882582    0.822699
H      -2.073319   -0.451916    0.668768
H      -1.827214   -0.905736   -1.059044
H       0.522077   -0.474451   -2.095491
H       1.909776   -0.558517   -0.981584
H       0.675074   -4.135475   -0.668640
