18

O      -0.064652    1.360220   -0.061100
N       0.058084   -0.036218    0.022792
C      -1.073159   -0.625948    0.058242
C      -2.428426    0.045887    0.073988
O      -3.273041   -0.525210    1.064293
C      -3.427520   -1.923596    0.916417
C      -2.091048   -2.650745    1.116415
O      -2.222144   -4.048025    0.909492
C      -1.077189   -2.131952    0.093534
H       0.854215    1.644773   -0.020587
H      -2.332327    1.103840    0.313282
H      -2.893430   -0.046058   -0.923543
H      -4.158790   -2.234556    1.670357
H      -3.829630   -2.181374   -0.078331
H      -1.725963   -2.430078    2.131232
H      -2.751098   -4.411313    1.626931
H      -1.388116   -2.517690   -0.888457
H      -0.072802   -2.509942    0.294636
