23

C       1.944066    1.575152    0.295241
C       1.952115    0.054923    0.475505
C       0.663649   -0.481896    1.115440
C       0.658974   -2.000936    1.251645
C       1.506124   -2.658360    2.403502
C       0.300819   -2.360886    3.352404
C      -0.475723   -2.696700    2.057717
O      -0.193393   -4.093742    1.862463
C       1.235425   -4.137052    2.101573
H       1.836578    2.088384    1.257425
H       2.871154    1.927681   -0.167448
H       1.111710    1.893656   -0.342279
H       2.099307   -0.429592   -0.498673
H       2.812421   -0.236915    1.091266
H       0.515748    0.008954    2.084251
H      -0.192593   -0.184016    0.494010
H       0.811776   -2.453285    0.264359
H       2.530741   -2.367150    2.633844
H       0.142720   -3.024617    4.205945
H       0.233634   -1.318832    3.661262
H      -1.539067   -2.512993    1.906733
H       1.755221   -4.504373    1.208696
H       1.455503   -4.805515    2.942669
