19

C       0.059457    1.508885    0.008141
C      -0.011626   -0.020296    0.002310
C      -1.444317   -0.529120    0.012119
O      -1.416578   -1.951712    0.006203
C      -2.623469   -2.557325    0.013274
C      -3.880861   -2.023494    0.025811
O      -4.804820   -3.034806    0.028818
C      -4.119304   -4.201687    0.018030
C      -2.780042   -3.983076    0.008321
H       1.097841    1.851413    0.000677
H      -0.437334    1.935888   -0.869978
H      -0.422182    1.928433    0.898210
H       0.495237   -0.421724   -0.882470
H       0.509855   -0.429098    0.875138
H      -1.981286   -0.175598    0.905973
H      -1.995989   -0.168517   -0.869867
H      -4.273464   -1.023041    0.033401
H      -4.717929   -5.097777    0.018841
H      -1.989930   -4.716156   -0.001248
