20

C       0.155318    1.573209   -0.098668
C      -0.100081    0.078143    0.070182
O       0.249253   -0.647774   -1.117596
C       0.584738   -0.503356    1.320962
C       0.656717   -2.024886    1.288126
O      -0.501917   -2.650032    0.807164
C       1.974678   -2.709003    0.995611
C       1.358620   -2.764267    2.381900
H       1.226358    1.774054   -0.224626
H      -0.370667    1.954690   -0.977863
H      -0.185979    2.129890    0.780405
H      -1.177466   -0.093049    0.163432
H       1.208909   -0.632601   -1.205711
H       1.598385   -0.093058    1.421160
H       0.022248   -0.167200    2.201415
H      -0.541177   -2.420419   -0.132109
H       1.933253   -3.614275    0.400436
H       2.866639   -2.106555    0.852863
H       1.823348   -2.193179    3.178691
H       0.915142   -3.703453    2.691281
