16

N      -0.049865    1.011093   -0.986845
C       0.032338    0.060352   -0.126815
N      -1.215890   -0.451463    0.280630
C      -1.615890   -1.635961    0.845712
O      -2.791257   -1.880828    1.027841
C      -0.538912   -2.670986    1.157003
N       0.552681   -2.184360    1.981398
C       1.461310   -1.297604    1.483893
C       1.269051   -0.390638    0.501250
H       0.877173    1.371873   -1.205249
H      -1.986511    0.109681   -0.062721
H      -1.046791   -3.480826    1.678937
H      -0.154545   -3.053973    0.196927
H       0.902577   -2.843017    2.656429
H       2.440183   -1.351710    1.952721
H       2.139058    0.182332    0.202707
