17

O       0.016344    1.355556   -0.066510
C       0.009562   -0.054693    0.017921
C      -1.393617   -0.574994    0.139131
C      -2.521403   -0.170170    1.120858
C      -3.120064   -1.016224   -0.020437
O      -2.312544   -0.245341   -0.993488
C      -1.949503   -2.040233    0.124882
C      -1.628946   -2.907905   -1.057740
O      -1.313246   -4.068778   -0.955957
H      -0.579887    1.595978   -0.785672
H       0.496085   -0.524391   -0.851604
H       0.582388   -0.328763    0.910014
H      -2.501023   -0.597059    2.125651
H      -2.787074    0.886306    1.102671
H      -4.160135   -1.211989   -0.278428
H      -1.887661   -2.603017    1.058661
H      -1.705853   -2.407344   -2.042768
