25

C      -0.009614    1.488948   -0.003484
C       0.013588   -0.030099   -0.017703
O       0.677981   -0.461392   -1.186033
C       0.757356   -1.864991   -1.300498
C       1.492739   -2.236014   -2.597701
C       0.720908   -1.688295   -3.811505
C       2.921594   -1.664405   -2.570785
C       1.546705   -3.770988   -2.663773
O       2.220984   -4.157119   -3.852764
H       1.008581    1.888315   -0.011112
H      -0.534156    1.872896   -0.883096
H      -0.519815    1.854568    0.892694
H       0.529072   -0.417845    0.877933
H      -1.013598   -0.433270    0.006332
H       1.290589   -2.285199   -0.428995
H      -0.257438   -2.301587   -1.301892
H       0.655371   -0.599200   -3.761736
H       1.217882   -1.974493   -4.740922
H      -0.300330   -2.086566   -3.838564
H       3.479501   -2.044961   -1.706957
H       3.464497   -1.950747   -3.474099
H       2.895058   -0.574838   -2.499800
H       2.070300   -4.158748   -1.774166
H       0.521083   -4.175627   -2.647244
H       2.248447   -5.117203   -3.884098
