21

C      -0.028931    1.464949    0.185625
C       1.519181    1.414353    0.025608
C       2.165991    1.123633    1.387927
C       1.301133    0.107624    2.173081
C       0.590777   -0.849329    1.203805
O       1.532065   -1.764269    0.624783
C       2.136648   -1.151939   -0.517928
C       1.308036    0.094499   -0.804955
C      -0.005957   -0.072427    0.001603
H      -0.443633    1.886844    1.105660
H      -0.508560    1.948596   -0.669488
H       2.007639    2.246645   -0.486793
H       3.181637    0.737335    1.246147
H       2.267549    2.053795    1.958242
H       1.904589   -0.471591    2.877511
H       0.544333    0.635825    2.764287
H      -0.146476   -1.461494    1.731031
H       3.194575   -0.928797   -0.318593
H       2.097920   -1.863799   -1.352133
H       1.175647    0.301632   -1.868364
H      -0.863639   -0.578976   -0.445036
