17

O      -0.069477   -0.070350   -0.416872
C      -0.017574    1.137961   -0.306562
N       1.127946    1.844560   -0.162696
C       2.418793    1.196553   -0.128041
C       3.491221    2.225288    0.038851
N       3.304226    3.477461    0.136026
C       4.634502    4.087794    0.284314
C       5.617680    2.887406    0.248300
O       4.752433    1.736302    0.085284
H      -0.912347    1.790938   -0.312625
H       1.126582    2.850594   -0.074048
H       2.478675    0.470817    0.693164
H       2.602311    0.624085   -1.046325
H       4.811787    4.800041   -0.527832
H       4.687319    4.645510    1.224776
H       6.311664    2.912650   -0.595660
H       6.186004    2.756681    1.172659
