19

C       0.071426    1.298158    0.185308
O      -0.135298   -0.073849   -0.067379
C       0.520624   -0.546823   -1.225793
C       2.057525   -0.683418   -1.093942
C       2.416097   -1.951367   -1.885655
O       3.477452   -2.173592   -2.412055
C       1.196256   -2.810407   -1.963409
C       0.467100   -3.041494   -0.645242
C       0.012532   -1.946669   -1.549523
H       1.125952    1.529476    0.396690
H      -0.253337    1.920601   -0.663483
H      -0.526006    1.558557    1.062112
H       0.290376    0.120307   -2.072590
H       2.624786    0.166512   -1.475915
H       2.332899   -0.819481   -0.041343
H       1.146074   -3.566373   -2.736481
H      -0.139845   -3.938328   -0.601055
H       0.962753   -2.792840    0.286115
H      -0.943164   -2.038206   -2.051216
