16

C       0.034394    1.485683   -0.068712
C      -0.078285    0.005768    0.000834
C      -1.086080   -0.870993   -0.253497
C      -0.561941   -2.185362   -0.002142
C      -1.284054   -3.500555   -0.112376
C      -1.814854   -3.755864   -1.455793
N      -2.241689   -3.949880   -2.511635
C       0.726403   -2.000796    0.384834
O       1.036485   -0.678119    0.395063
H       0.809326    1.794738   -0.778962
H      -0.916507    1.914829   -0.391099
H       0.293060    1.914249    0.905972
H      -2.080399   -0.621992   -0.590837
H      -0.613169   -4.323748    0.155554
H      -2.125254   -3.544311    0.591291
H       1.515204   -2.676033    0.673963
