16

O       0.122925    1.355274    0.147785
C       0.009036   -0.024878    0.052073
C      -1.353582   -0.689657    0.010178
C      -2.627902    0.135577    0.009929
O      -2.673894    1.088831   -1.055634
C      -2.231174    0.540384   -2.259095
O      -0.839293    0.293544   -2.229234
C      -0.481305   -0.635672   -1.236444
H      -0.210626    1.719131   -0.684522
H       0.800399   -0.537355    0.590859
H      -1.445225   -1.656499    0.496050
H      -3.496008   -0.536638   -0.069942
H      -2.725253    0.717597    0.930331
H      -2.772220   -0.393726   -2.488568
H      -2.397590    1.283634   -3.040734
H      -0.028319   -1.538091   -1.638145
