23

C      -0.278935    1.095200    0.394041
O      -0.110249   -0.289934    0.166276
C       0.470350   -0.674928   -1.062477
C      -0.184742   -0.020711   -2.273512
C       2.036927   -0.714701   -1.094749
C       2.821997   -0.221876    0.105340
O       2.022009   -2.159186   -1.170099
C       0.577354   -2.223978   -1.139794
C       0.050996   -3.055691    0.012524
H       0.652129    1.660473    0.252427
H      -1.053566    1.532701   -0.249558
H      -0.593740    1.201125    1.435150
H       0.001497    1.057189   -2.310802
H       0.217451   -0.454763   -3.192992
H      -1.267602   -0.184864   -2.261532
H       2.451468   -0.288377   -2.019674
H       2.331615   -0.507178    1.038813
H       3.821632   -0.667286    0.085395
H       2.937857    0.867104    0.084079
H       0.193521   -2.619163   -2.091257
H       0.374571   -2.650665    0.972590
H      -1.043398   -3.080699   -0.001186
H       0.420754   -4.081489   -0.083710
