17

N       1.148959   -0.622553    0.568470
C       0.109096    0.126356    0.106533
O       0.140770    1.336000    0.002344
C      -1.142213   -0.697569   -0.136456
C      -2.012375   -0.854192   -1.316967
C      -1.354993   -0.985818   -2.700028
C       0.136055   -0.839078   -2.651703
C      -0.512730   -2.085387   -2.103350
N      -1.232660   -2.038420   -0.759274
H       2.016146   -0.164614    0.795782
H       1.098442   -1.626603    0.585893
H      -1.721207   -0.715241    0.789326
H      -3.092421   -0.822401   -1.210736
H      -1.933533   -0.979637   -3.613212
H       0.618639   -1.023371   -3.607887
H       0.625658   -0.075678   -2.064579
H      -0.283618   -3.075445   -2.474999
