14

C      -0.008043    1.525500    0.121564
C       0.026721    0.041473    0.028146
C       0.008174   -0.743269   -1.089594
O       0.056814   -2.073656   -0.670726
C       0.100475   -1.980423    0.669151
N       0.211033   -3.140837    1.364125
N       0.082282   -0.765886    1.148796
C      -0.051817   -0.468218   -2.462824
N      -0.103040   -0.210101   -3.593215
H       0.885698    1.895386    0.634484
H      -0.060247    1.981555   -0.869113
H      -0.874429    1.850008    0.706934
H      -0.102870   -3.980083    0.903445
H       0.001324   -3.070831    2.346944
