14

C       0.033364    1.501737   -0.000179
C      -0.067906    0.016960    0.062784
C      -1.114007   -0.739466   -0.317429
N      -1.097391   -2.125666   -0.212904
C      -0.043425   -2.642445    0.260883
F       0.042217   -3.961762    0.389228
C       1.159142   -1.923237    0.709594
N       2.230203   -2.396052    1.188754
O       1.058521   -0.559966    0.570369
H       0.878841    1.803860   -0.627527
H      -0.882779    1.929448   -0.410678
H       0.204141    1.918864    0.998080
H      -2.012165   -0.292921   -0.721064
H       2.164402   -3.411099    1.233472
