19

O      -0.011136    0.007096   -0.358178
C      -0.015231    1.147295    0.017446
O      -1.194949    1.716319    0.385395
C      -1.271877    3.013827    1.009878
C      -0.005511    3.856306    0.874018
C       0.296776    4.223488   -0.599377
C       1.148977    3.038557   -1.140033
C       1.219176    2.037419    0.046191
C       1.183029    2.965721    1.270826
H      -2.131834    3.513298    0.552165
H      -1.503067    2.843906    2.068945
H      -0.123887    4.739480    1.508646
H      -0.621448    4.371702   -1.174786
H       0.858273    5.160347   -0.649027
H       0.726452    2.582008   -2.038189
H       2.161681    3.366143   -1.391871
H       2.085936    1.378933   -0.008828
H       2.113288    3.538301    1.347046
H       1.030931    2.437590    2.217503
