15

C      -0.013383    1.558688    0.020690
C      -0.013286    0.055671    0.010075
C      -1.128320   -0.704385   -0.147677
F      -2.339457   -0.198799   -0.309570
N      -1.090293   -2.048917   -0.152062
C       0.109048   -2.783973    0.006614
N       0.017312   -4.055858   -0.014914
N       1.264710   -2.027741    0.169879
C       1.175182   -0.730734    0.166876
H       0.611267    1.966277   -0.782120
H      -1.023962    1.949423   -0.113899
H       0.373581    1.953832    0.966693
H      -1.941557   -2.579596   -0.272118
H       0.948207   -4.448945    0.109484
H       2.113370   -0.188242    0.298952
