20

C       0.035809    0.734330   -0.740176
C       1.215339    0.818607    0.203263
C       0.530071   -0.498536   -0.016532
N      -0.112691   -1.166187    1.089993
C      -1.263691   -0.587097    1.769547
C      -1.420349   -1.807197    0.929149
C      -2.206786   -1.755110   -0.347387
C      -3.668395   -1.591525   -0.324869
O      -2.815123   -0.523622   -0.737801
H      -0.897346    1.189784   -0.434475
H       0.218650    0.791902   -1.808049
H       2.211300    0.963948   -0.200170
H       1.046694    1.301466    1.160330
H       1.069256   -1.219145   -0.625592
H      -1.252540   -0.659432    2.854128
H      -1.713085    0.319160    1.371866
H      -1.478897   -2.781585    1.415127
H      -1.778305   -2.312311   -1.182132
H      -4.277431   -2.034758   -1.111025
H      -4.170402   -1.442555    0.629957
