17

C      -0.202044    1.553034    0.153098
C      -0.015697    0.034585    0.058553
C       1.045024   -0.410662   -1.003657
N       2.045266   -0.564884    0.076155
C       0.990254   -0.585167    1.105065
C       1.310738    0.215342    2.353042
O       0.478663    0.613333    3.125572
C      -1.297515   -0.650271   -0.032860
N      -2.311369   -1.199387   -0.118569
H       0.774658    2.044249    0.175598
H      -0.755015    1.917342   -0.716865
H      -0.750300    1.823366    1.057600
H       0.760167   -1.343754   -1.503051
H       1.303435    0.340055   -1.756927
H       2.617359   -1.399226    0.017141
H       0.653370   -1.585001    1.415982
H       2.397503    0.416550    2.489894
