23

C      -0.124328    1.580577    0.127021
C       0.028624    0.064146   -0.033840
C       0.741944   -0.430992   -1.320953
C       0.032599    0.086515   -2.584672
C       2.218424    0.006194   -1.315397
C       0.652922   -1.993992   -1.287509
O      -0.678873   -2.432296   -1.228751
C       1.345807   -2.665719   -2.457749
O       0.750549   -3.411003   -3.201220
H       0.837456    2.103305    0.129691
H      -0.740230    2.017349   -0.664691
H      -0.615294    1.804564    1.079296
H       0.580364   -0.330592    0.830447
H      -0.961268   -0.400105   -0.001223
H       0.058754    1.178215   -2.633875
H       0.512876   -0.290072   -3.494974
H      -1.011853   -0.235331   -2.598825
H       2.771784   -0.455223   -0.488965
H       2.729793   -0.246812   -2.249179
H       2.298217    1.090203   -1.197952
H       1.200250   -2.326524   -0.384586
H      -0.788465   -3.032685   -1.983703
H       2.425434   -2.465590   -2.591235
