22

C       0.240583    1.409283   -0.260201
C       0.090461   -0.086545   -0.126960
C       0.557650   -1.209454   -1.087658
N      -0.092066   -2.021249    0.047925
C       0.676297   -1.035970    0.950388
C      -1.222159   -0.935647    0.029179
C      -2.086306   -0.840529    1.287882
C      -2.188359   -1.134746   -1.152777
O      -2.661821   -2.472772   -1.164831
H       1.296156    1.694017   -0.328397
H      -0.264076    1.779006   -1.159494
H      -0.190709    1.927016    0.603483
H       0.092944   -1.325623   -2.064896
H       1.634587   -1.381404   -1.161312
H       1.756071   -1.206229    0.929329
H       0.324906   -0.976760    1.978248
H      -2.624491    0.114240    1.285607
H      -2.831478   -1.640561    1.260313
H      -1.549199   -0.913422    2.232273
H      -3.064350   -0.491062   -1.017158
H      -1.748568   -0.862918   -2.120189
H      -1.903349   -3.027781   -0.938377
