23

C      -0.163335    1.584253   -0.076261
C      -0.078808    0.054592   -0.037602
C       0.558769   -0.588633   -1.287824
C       1.977597   -0.087718   -1.603973
C       3.001935   -0.332306   -0.490718
C       0.365877   -2.147966   -1.331469
C      -0.689402   -2.016063   -2.470441
C      -0.390717   -0.510271   -2.504571
O      -0.729052    0.388390   -3.222718
H       0.828501    2.045969   -0.054108
H      -0.670142    1.926494   -0.983040
H      -0.719390    1.958954    0.788602
H       0.482913   -0.272278    0.846225
H      -1.088833   -0.358218    0.084791
H       2.320832   -0.583295   -2.521253
H       1.932114    0.979939   -1.844731
H       2.761107    0.230116    0.416464
H       3.054481   -1.392600   -0.220459
H       4.000963   -0.023368   -0.813316
H       1.266162   -2.685789   -1.636909
H      -0.006100   -2.590253   -0.405337
H      -0.483493   -2.543700   -3.405757
H      -1.719892   -2.239360   -2.176862
