17

N       0.079806    1.307553    0.099365
C      -0.047954   -0.058799    0.039109
N      -1.145607   -0.757838    0.031983
C      -0.665729   -2.065473    0.077660
C       0.673044   -2.073430    0.097209
C       1.333150   -3.400867    0.043673
C       0.065230   -4.314194    0.253665
C      -1.230151   -3.449092    0.027245
O       1.119272   -0.768601    0.067623
H       0.907464    1.671906   -0.350281
H      -0.766367    1.785951   -0.173166
H       1.823672   -3.593920   -0.920234
H       2.085840   -3.571269    0.821543
H       0.090923   -5.185371   -0.404713
H       0.069614   -4.688886    1.280329
H      -1.986478   -3.650095    0.793136
H      -1.699512   -3.662686   -0.941574
