17

C      -0.140165    1.540220   -0.060606
C       0.025182    0.010709   -0.015985
C      -1.357538   -0.618374    0.090895
O      -1.823934   -1.068632    1.101781
C       0.754542   -0.533252   -1.287276
C       2.206484   -0.039461   -1.271761
O       2.585044    0.938785   -1.856451
C       0.728808   -1.989896   -1.346819
C       0.745555   -3.191456   -1.370101
H       0.818726    2.039361   -0.217922
H      -0.805021    1.837583   -0.879411
H      -0.571887    1.899563    0.877017
H       0.581812   -0.288104    0.878134
H      -1.943742   -0.588700   -0.857544
H       0.278575   -0.101135   -2.175711
H       2.885800   -0.654131   -0.642896
H       0.741634   -4.253457   -1.399952
