16

O       0.624127    0.225682    0.689340
C      -0.175198    0.237627   -0.474083
C      -1.502103   -0.447879   -0.280598
C      -2.195203   -0.735827    1.005731
C      -1.910989   -1.893611    0.049381
C      -2.820244   -1.753985   -1.172792
O      -2.431159   -0.366547   -1.356796
C      -1.146334   -3.039727    0.395643
N      -0.534537   -3.986112    0.661922
H       0.270765    0.876315    1.304219
H      -0.380367    1.256135   -0.839793
H       0.394974   -0.275092   -1.254900
H      -1.558529   -0.743236    1.883282
H      -3.221634   -0.414003    1.159130
H      -2.495352   -2.361489   -2.022195
H      -3.896960   -1.868072   -1.010157
