18

C      -0.063935    1.528978   -0.185720
C       1.454440    1.615701    0.154491
C       1.488239    0.086986    0.428295
C       1.379866   -0.346837    1.901637
C       0.461586   -1.591376    1.833724
C      -0.527324   -0.455767    1.474312
O       0.224685    0.417668    2.378909
C      -0.045012   -0.000585    0.084755
H      -0.716020    2.097394    0.481226
H      -0.303846    1.788961   -1.219410
H       2.081521    1.925211   -0.684935
H       1.694988    2.235093    1.021449
H       2.200002   -0.507405   -0.147374
H       2.252973   -0.271842    2.550768
H       0.671507   -2.370770    1.095506
H       0.264540   -2.011719    2.820309
H      -1.596065   -0.491681    1.688354
H      -0.375203   -0.654489   -0.724372
