21

O       0.250114    1.025651   -0.553710
C      -0.042012   -0.327490   -0.235118
C      -1.507931   -0.421088    0.184051
C      -2.454500   -0.041900   -0.989397
C      -2.950280   -1.373920   -1.492838
C      -2.643357   -2.374861   -0.668010
C      -3.003626   -3.816290   -0.819279
O      -3.742092   -4.010690   -2.012119
C      -1.877090   -1.886989    0.543324
H       1.139316    1.064592   -0.916813
H       0.130567   -0.988050   -1.100833
H       0.598066   -0.685150    0.587695
H      -1.646699    0.248089    1.037961
H      -3.290602    0.584294   -0.648649
H      -1.928112    0.546280   -1.748685
H      -3.517169   -1.492550   -2.407799
H      -2.080056   -4.423918   -0.815899
H      -3.580177   -4.139215    0.067101
H      -3.960054   -4.944353   -2.078934
H      -0.986654   -2.496624    0.753359
H      -2.497657   -1.941399    1.448738
