21

C      -0.592811    1.407238    0.168405
C       0.028351    0.019214    0.036722
C       0.928403   -0.171507   -1.222477
C       2.161750   -0.916290   -0.714726
C       3.294663   -1.337222   -1.536571
O       3.397219   -0.159211   -0.727231
C       1.799329   -1.511251    0.635445
C       0.937540   -0.387200    1.232898
O       1.741376    0.681807    1.712894
H       0.185411    2.166963    0.278931
H      -1.197338    1.652741   -0.710870
H      -1.240481    1.468404    1.049292
H      -0.777737   -0.724795   -0.004415
H       0.410212   -0.738299   -2.002142
H       1.238317    0.781178   -1.661724
H       3.913146   -2.176956   -1.220323
H       3.279299   -1.157815   -2.611140
H       1.198474   -2.419201    0.502276
H       2.675852   -1.752804    1.240759
H       0.339912   -0.712825    2.089533
H       2.486525    0.797451    1.111027
