20

C      -0.134008    1.521622    0.015451
C      -0.016392    0.015489    0.049674
O      -1.155766   -0.667985   -0.407702
C       1.324502   -0.656322   -0.195256
C       0.682741   -0.675070    1.171344
C       1.299538   -0.118008    2.481198
C       0.822269   -1.405690    3.172989
N      -0.651509   -1.438024    3.013483
C       0.222634   -1.914679    1.908007
H       0.758991    2.001680    0.425730
H      -0.259512    1.880187   -1.014231
H      -1.001677    1.847755    0.597367
H      -1.240155   -0.496454   -1.352487
H       1.312872   -1.581117   -0.763961
H       2.204497   -0.036938   -0.344490
H       2.388111   -0.034235    2.425603
H       0.872664    0.806089    2.879679
H       1.309939   -1.940030    3.978457
H      -0.984134   -2.271345    3.499882
H       0.135297   -2.922185    1.521827
