23

C       0.059104    1.596015    0.068541
C      -0.193698    0.109929   -0.208736
C       0.763199   -0.464750   -1.246332
C       2.222769   -0.704327   -0.803876
O       2.127565   -2.111523   -1.096813
C       0.758723   -1.995812   -1.519280
C      -0.291834   -2.942876   -0.890736
C      -0.945641   -3.083651   -2.292316
C       0.369304   -2.538428   -2.914116
H       1.076228    1.764133    0.439369
H      -0.064235    2.194720   -0.840714
H      -0.635265    1.983000    0.820404
H      -0.101502   -0.457993    0.725724
H      -1.227700   -0.026812   -0.550963
H       0.692052    0.112973   -2.174203
H       3.002057   -0.212531   -1.398317
H       2.422083   -0.521231    0.260941
H       0.199967   -3.868070   -0.576299
H      -0.901992   -2.569812   -0.065052
H      -1.266647   -4.081494   -2.596774
H      -1.783410   -2.394236   -2.427961
H       0.301789   -1.821070   -3.737076
H       1.049976   -3.345318   -3.201215
