19

C      -0.121255    1.312473    0.469321
O      -0.148793   -0.094822    0.411180
C      -1.161335   -0.569366   -0.455380
C      -1.152781   -2.025711   -0.487811
C      -1.155349   -3.228088   -0.536479
C      -1.171583   -4.684381   -0.562906
C      -2.064616   -5.294677    0.543188
C      -1.964512   -6.803246    0.574509
O      -2.901022   -7.558154    0.553468
H       0.682137    1.591616    1.154433
H       0.079854    1.759821   -0.517368
H      -1.070703    1.726261    0.845438
H      -2.150821   -0.208314   -0.123161
H      -1.011435   -0.172177   -1.474973
H      -1.519544   -5.031393   -1.544209
H      -0.146269   -5.062806   -0.453849
H      -1.721613   -4.916801    1.515725
H      -3.110492   -5.006248    0.416014
H      -0.918349   -7.190540    0.623971
