12

C      -0.022455    1.491954    0.029814
C       0.000453   -0.008875   -0.012037
C       0.071096   -0.735300   -1.211363
N       0.089665   -2.058346   -1.219978
C       0.035892   -2.599585   -0.010697
F       0.051924   -3.913690    0.034461
N      -0.031452   -1.991154    1.159637
N      -0.049315   -0.660343    1.151360
H       0.877519    1.914365   -0.429522
H      -0.884925    1.889805   -0.515405
H      -0.077727    1.825011    1.067066
H       0.112916   -0.232208   -2.175226
