20

C      -0.444481    1.414461    0.049081
C      -0.024561   -0.034110    0.012701
C      -0.304573   -0.951775    1.202547
C       1.111280   -0.601790    0.821186
O       1.856181   -1.524683    0.073495
C       1.086042   -1.893398   -1.072209
C       0.083851   -0.762123   -1.310129
C      -1.012874   -0.860933   -2.298341
N       0.182295   -0.040008   -2.587369
H       0.231629    2.051723   -0.532107
H      -1.462010    1.552042   -0.338307
H      -0.440008    1.790710    1.076104
H      -0.709487   -0.481686    2.092994
H      -0.666445   -1.959116    1.026670
H       1.737291   -0.008697    1.478169
H       1.759886   -2.020349   -1.922781
H       0.567387   -2.845283   -0.888329
H      -1.117340   -1.750024   -2.915867
H      -1.950871   -0.358090   -2.074269
H      -0.040293    0.944721   -2.463803
