19

C       0.186226   -1.263790    0.416833
C       0.075891   -0.091016    0.177729
C      -0.064883    1.343279   -0.068499
C      -0.861979    1.977508    1.101517
O      -1.301965    3.288364    0.837437
C      -0.331978    4.303174    1.019102
C       0.639976    4.449576   -0.153671
C       1.574170    3.286351   -0.381032
C       1.289175    1.984947   -0.339955
H       0.282157   -2.302936    0.613144
H      -0.692682    1.477441   -0.963456
H      -1.763444    1.380240    1.265434
H      -0.251512    1.940951    2.016139
H      -0.897486    5.233889    1.135878
H       0.229551    4.127246    1.950173
H       0.051965    4.636338   -1.064129
H       1.230739    5.357860    0.015075
H       2.597157    3.553744   -0.637207
H       2.086286    1.279816   -0.557175
