21

C       0.147933    1.639041    0.072215
C      -0.092609    0.132168    0.047530
C      -1.558402   -0.251119   -0.012313
N      -2.478696    0.619020   -0.038278
N      -1.738336   -1.656542   -0.033811
C      -2.932633   -2.348088   -0.086390
O      -4.018602   -1.802445   -0.122090
C      -2.767012   -3.866346   -0.095773
C      -4.103633   -4.601469   -0.153967
H       1.220126    1.851846    0.115349
H      -0.269621    2.113267   -0.818506
H      -0.336704    2.095193    0.938051
H       0.418189   -0.322122   -0.813927
H       0.351460   -0.340124    0.935871
H      -3.394653    0.170965   -0.077804
H      -0.897408   -2.213276   -0.007514
H      -2.134434   -4.138443   -0.951276
H      -2.200703   -4.156506    0.799313
H      -3.944406   -5.683176   -0.159412
H      -4.726591   -4.345164    0.706028
H      -4.660239   -4.326514   -1.052823
