18

C      -0.272948    1.478217    0.030534
N       0.143689    0.086161    0.026356
C       1.242064   -0.358780   -0.862723
C       1.914701   -1.090043    0.315759
C       2.459729   -2.401010    0.266386
C       2.924766   -3.509717    0.204724
C       2.216344   -0.094152    1.402012
O       2.744963    1.148366    1.043837
C       0.776982   -0.486239    1.199415
H       0.555685    2.193828    0.143071
H      -0.795671    1.702313   -0.905669
H      -0.984019    1.634161    0.848957
H       0.892237   -1.035168   -1.647668
H       1.846828    0.443308   -1.300524
H       3.335385   -4.487225    0.153354
H       2.677592   -0.559660    2.274735
H       2.471396    1.790830    1.707278
H       0.183961   -0.958629    1.977764
