15

O       0.128811    1.356457   -0.109112
C       0.005139   -0.015319   -0.031498
C      -0.470658   -0.830815   -1.210547
C      -1.295398   -0.782083    0.055827
C      -1.037422   -1.908183    1.037000
O       0.385876   -1.887304    1.318291
C       0.930637   -0.715918    0.898469
N       2.042199   -0.225415    1.245931
H       0.998074    1.551460    0.273131
H      -0.836308   -0.237721   -2.041142
H       0.040293   -1.749887   -1.483023
H      -2.255131   -0.281756    0.058781
H      -1.575913   -1.761423    1.979897
H      -1.272879   -2.901825    0.643808
H       2.515922   -0.799006    1.942856
