23

C      -0.024217    1.476930    0.292424
C      -0.155335    0.003090   -0.110829
C       0.732795   -0.416670   -1.275450
C       2.284327   -0.428341   -1.086674
C       2.287950   -1.597536   -2.103186
C       0.858343   -1.940523   -1.606074
O       2.299349   -1.090670   -3.431369
C       1.098824   -0.408091   -3.781848
C       0.452731    0.338632   -2.594396
H       1.011453    1.726640    0.547424
H      -0.338842    2.148128   -0.512831
H      -0.643952    1.698335    1.166698
H       0.089967   -0.628442    0.753386
H      -1.202753   -0.216520   -0.360858
H       2.851435    0.463461   -1.365952
H       2.569463   -0.756009   -0.081822
H       3.074111   -2.353244   -2.052744
H       0.901116   -2.539377   -0.692007
H       0.153051   -2.401617   -2.302110
H       1.359039    0.278103   -4.593101
H       0.376833   -1.129922   -4.190028
H      -0.626606    0.418782   -2.775463
H       0.843100    1.359527   -2.518839
