21

C      -0.395136    1.149685    0.499385
O      -0.024274   -0.204596    0.344954
C       0.513332   -0.503487   -0.925941
C       1.280326   -1.834676   -0.839006
C       2.531301   -1.751283    0.008495
C       2.459508   -1.884978    1.507005
C       3.073072   -2.988393    0.682624
C      -0.603868   -0.631594   -1.960149
O      -0.436727   -0.585183   -3.150549
H       0.471182    1.819174    0.389319
H      -1.161551    1.459106   -0.227703
H      -0.804322    1.259540    1.506119
H       1.201695    0.288331   -1.263244
H       0.602548   -2.596235   -0.433187
H       1.532825   -2.138002   -1.861649
H       3.275872   -1.056553   -0.373582
H       3.115309   -1.267682    2.111056
H       1.482812   -2.054530    1.944913
H       2.513818   -3.911798    0.571182
H       4.148229   -3.125058    0.716942
H      -1.605991   -0.815490   -1.505772
