20

C       0.003158    1.504283   -0.080884
C      -0.007996   -0.021613    0.034383
C      -1.426292   -0.606077    0.062339
C      -1.449289   -2.105109    0.109104
C      -0.751156   -3.095521    1.087364
C      -1.337949   -3.885432   -0.101562
C      -2.652747   -3.083545    0.011528
O      -0.813430   -2.851841   -1.020777
H       1.025912    1.893183   -0.099066
H      -0.495160    1.836130   -0.998531
H      -0.515833    1.971910    0.763606
H       0.537462   -0.466939   -0.804904
H       0.525945   -0.326765    0.943063
H      -1.978780   -0.225451    0.931941
H      -1.981917   -0.282400   -0.827541
H       0.337635   -3.037833    1.111473
H      -1.195365   -3.239743    2.076107
H      -1.184264   -4.927109   -0.382319
H      -3.273960   -3.226476    0.900007
H      -3.232188   -3.010855   -0.910059
