17

C      -0.062406    1.445509   -0.102617
N       0.020980    0.001296    0.034423
C      -1.250656   -0.674892    0.232745
C      -1.150778   -2.158822    0.373715
C       0.001152   -2.815169    0.320252
C       1.308033   -2.117713    0.112610
C       1.250274   -0.601047   -0.033430
O       2.280918    0.029477   -0.203958
H       0.944721    1.833336   -0.242604
H      -0.684974    1.716721   -0.964895
H      -0.508793    1.893402    0.794430
H      -1.744353   -0.252017    1.124284
H      -1.921101   -0.428767   -0.608394
H      -2.091471   -2.679659    0.524942
H       0.023961   -3.896485    0.427976
H       2.002267   -2.323716    0.937824
H       1.821099   -2.496303   -0.781174
