19

C       0.026519    1.421122   -0.145145
C       1.469338    1.848610    0.234137
N       2.161480    0.563517    0.168959
C       3.459263    0.384621    0.787616
C       3.853201   -1.086364    0.662357
C       2.709039   -1.950686    1.174004
O       1.485693   -1.689045    0.471536
C       1.155305   -0.399656    0.291119
N      -0.051828   -0.018767    0.139215
H      -0.733227    1.971765    0.416373
H      -0.164635    1.598470   -1.212322
H       1.908975    2.578001   -0.452802
H       1.519561    2.265075    1.254379
H       4.190814    1.030074    0.288621
H       3.440738    0.683059    1.852506
H       4.055423   -1.330237   -0.385720
H       4.759391   -1.290978    1.240537
H       2.901328   -3.014944    1.024470
H       2.547170   -1.779576    2.247946
