16

O       0.020784   -0.030291   -0.369684
C       0.243532    1.109439   -0.058314
C       1.333138    1.969924   -0.678890
N       0.996108    3.384765   -0.559715
C       2.086182    4.294339   -0.832409
C       2.449937    4.433248   -2.317180
O       1.778002    3.929952   -3.191330
C       3.626262    5.233612   -2.599085
C       4.611250    5.902208   -2.779022
H      -0.332925    1.631652    0.738916
H       2.241533    1.783052   -0.086274
H       1.533395    1.615796   -1.699424
H       0.234755    3.597278   -1.198081
H       1.837224    5.304164   -0.473700
H       2.980239    3.993661   -0.272857
H       5.478467    6.489486   -2.962934
