18

C      -0.058624    1.536013    0.004025
C       0.086440    0.037898   -0.021771
N      -0.762045   -0.820820    0.849430
C       0.694737   -0.785668    1.088841
C       1.527960   -1.857725    0.415418
O       1.182010   -3.285904    0.352639
C       1.196490   -3.265416   -1.108251
C       1.134965   -1.759269   -1.028027
C       0.323990   -0.739150   -1.296907
H       0.819725    2.023551   -0.431707
H      -0.935076    1.854776   -0.572324
H      -0.179488    1.906440    1.027219
H      -1.203165   -0.236494    1.559215
H       1.055918   -0.307453    1.993165
H       2.589644   -1.751860    0.676027
H       2.126993   -3.697918   -1.499271
H       0.333200   -3.778307   -1.543418
H      -0.288092   -0.600639   -2.180779
