14

F      -0.006051    0.079694    0.002863
C      -0.054944    1.419329    0.076027
F       1.198311    1.881924    0.056718
F      -0.683177    1.871679   -1.012876
C      -0.773484    1.826449    1.336076
C      -2.253655    1.604267    1.722597
C      -1.576955    2.554639    2.742308
C      -0.346378    1.615235    2.806669
O      -0.933172    3.265878    1.602439
H      -2.974693    2.075965    1.055846
H      -2.552260    0.609783    2.059808
H      -2.024075    3.167095    3.522761
H      -0.474689    0.621731    3.240677
H       0.591265    2.096470    3.082685
