18

O      -0.033561    1.153538    0.353435
N      -0.028148   -0.252075    0.401037
C      -1.137413   -0.739226    0.015703
C      -2.487311   -0.230167   -0.452546
C      -2.981214   -1.720389   -0.462222
C      -1.577723   -2.152597    0.007410
C      -0.732053   -3.363049   -0.349306
C      -1.127459   -3.131875    1.078589
O      -0.212951   -2.726888    2.038146
H       0.861374    1.373682    0.633415
H      -2.987438    0.436741    0.254522
H      -2.464631    0.259713   -1.429599
H      -3.787970   -1.933480    0.242674
H      -3.264758   -2.092003   -1.449685
H      -1.222349   -4.161217   -0.898661
H       0.299420   -3.171517   -0.628734
H      -1.885143   -3.783664    1.505237
H       0.177023   -1.885225    1.751212
