18

O       0.031268    1.430794   -0.443895
C       0.054669    0.070267   -0.112551
C      -1.352225   -0.535845    0.046288
C      -1.338911   -2.090703    0.084983
N      -2.362132   -2.427405    1.089872
C      -2.627625   -1.332991    1.846686
C      -2.088130   -0.190232    1.340305
C      -2.251477    1.093655    1.949439
O      -1.742549    2.146974    1.575935
H      -0.516260    1.879537    0.228189
H       0.569415   -0.447512   -0.932999
H       0.632381   -0.133627    0.807355
H      -1.941089   -0.187768   -0.812279
H      -1.575538   -2.544020   -0.880304
H      -0.355045   -2.463329    0.407124
H      -2.423726   -3.356235    1.474704
H      -3.234662   -1.428997    2.739632
H      -2.897896    1.092884    2.853290
