20

C       0.212326    1.493247   -0.353763
C       1.665690    1.382107    0.141114
C       1.205894    0.046901    0.761548
C       1.857357   -1.328591    0.478911
N       1.959517   -1.644413    1.936300
C       3.244362   -1.177580    2.551675
C       2.595215    0.153076    3.019165
C       1.326750   -0.303232    2.265523
O      -0.130828    0.231877    0.256386
H      -0.373220    2.321748    0.062149
H       0.073677    1.471709   -1.441086
H       2.424706    1.290466   -0.638328
H       1.978581    2.144335    0.857533
H       1.172822   -2.007580   -0.039550
H       2.816582   -1.313076   -0.053198
H       3.580122   -1.839151    3.355522
H       4.064642   -1.072139    1.831458
H       2.458788    0.228579    4.099745
H       3.062494    1.076474    2.666536
H       0.373619   -0.302025    2.801832
