15

O       0.072984    0.126596    0.475866
C      -0.010756    1.252984    0.103351
C      -1.308442    2.119359    0.002417
C      -0.672200    3.463751   -0.100177
C      -0.621287    4.953477   -0.506782
C       0.764498    4.527247    0.109208
O       0.036269    3.830218    1.167993
C       0.689852    3.244654   -0.766550
O       1.095686    1.966201   -0.329988
H      -1.865350    1.829755   -0.894144
H      -1.927339    1.954379    0.884282
H      -0.679272    5.197581   -1.570505
H      -1.187234    5.636107    0.125320
H       1.607627    5.156170    0.393006
H       0.806475    3.347576   -1.847577
