21

C       0.035797    1.656785   -0.844045
C       0.061544    0.205130   -0.402123
O      -1.235190   -0.132024    0.083737
C      -1.357381   -1.447484    0.558801
C      -2.713522   -1.566911    1.270483
N      -2.883042   -2.893106    1.835421
C      -4.083688   -3.018776    2.652922
C      -1.261326   -2.435149   -0.545301
N      -1.204526   -3.205882   -1.405030
H       1.019490    1.952834   -1.219697
H      -0.698244    1.801786   -1.641282
H      -0.228803    2.310434   -0.008223
H       0.331349   -0.453643   -1.240404
H       0.805434    0.049050    0.395325
H      -0.562025   -1.691717    1.279986
H      -2.706556   -0.832612    2.083155
H      -3.505691   -1.261968    0.564596
H      -2.912372   -3.578848    1.087007
H      -4.179501   -4.051110    3.000224
H      -3.993995   -2.376299    3.536099
H      -5.017158   -2.741994    2.132069
