18

C      -0.061674   -3.776684   -0.053520
C      -0.024153   -2.570747   -0.000046
C       0.018466   -1.211977    0.060421
C       0.056520   -0.003318    0.114768
C       0.126033    1.447165    0.170803
C       1.509253    1.993495   -0.233258
N       1.496866    3.448255   -0.177512
C       1.895003    4.050415    1.093459
C       2.799372    4.098219   -0.088072
H      -0.095006   -4.836602   -0.100981
H      -0.630197    1.889654   -0.488853
H      -0.112341    1.790066    1.186219
H       2.282925    1.549087    0.416946
H       1.733321    1.688739   -1.260901
H       1.334718    4.929585    1.397335
H       2.178428    3.384227    1.907295
H       3.684698    3.464857   -0.060804
H       2.910494    5.012222   -0.664091
