17

N       0.197958    1.266899   -0.444321
C       0.081475   -0.090945   -0.145399
N      -1.087430   -0.719919   -0.128440
N      -0.767737   -2.011873    0.132601
C       0.566121   -2.210863    0.282137
C       1.163620   -0.978682    0.105470
N       2.512835   -0.589952    0.221234
C       3.541269   -1.527604   -0.213853
C       3.252085   -0.309582   -1.018020
H       0.905451    1.720515    0.120321
H      -0.689907    1.744577   -0.353710
H      -1.504214   -2.690390    0.196603
H       0.980737   -3.178840    0.513105
H       4.425506   -1.578366    0.414417
H       3.214296   -2.479178   -0.627652
H       2.722789   -0.445122   -1.957233
H       3.918643    0.546309   -0.976693
