17

C      -0.047066    1.532112   -0.121519
C      -0.035001    0.037534    0.065716
O       1.214679   -0.636263   -0.098286
C       0.620772   -0.627420    1.211792
C       1.326208    0.072127    2.364115
C       1.120267   -0.874504    3.561866
O       1.466486   -0.663203    4.699164
C       0.415530   -2.076060    3.048296
C       0.152747   -1.935958    1.742300
H       0.819072    1.998312    0.353000
H      -0.025573    1.778238   -1.188104
H      -0.959176    1.963898    0.304210
H      -0.875613   -0.488395   -0.393418
H       2.395112    0.182014    2.159080
H       0.930719    1.063605    2.599609
H       0.172550   -2.920494    3.680148
H      -0.334074   -2.660372    1.098965
