16

C      -0.262307    1.562002    0.194182
C       0.043407    0.070925    0.066160
N       1.249958   -0.249051   -0.770672
C       1.840768   -1.117560    0.292186
C       0.772814   -0.606925    1.228193
N       0.509092   -0.594842    2.461129
O       1.468866   -1.297239    3.195269
C      -1.149465   -0.685534   -0.346701
N      -2.067050   -1.287509   -0.711620
H       0.650043    2.088219    0.481243
H      -0.615884    1.960152   -0.760806
H      -1.030682    1.729050    0.953472
H       1.031842   -0.731092   -1.635884
H       1.773448   -2.198406    0.112476
H       2.874456   -0.866563    0.548844
H       1.147241   -1.206322    4.099380
