21

C      -0.210144    1.509604    0.044036
C       0.028701    0.002702   -0.082028
O       0.725245   -0.313298   -1.286965
C       0.741849   -0.548105    1.137300
C      -0.004933   -1.145175    2.298490
C       0.837033   -2.048609    1.405055
C       0.144951   -3.043631    0.482330
C       2.089306   -2.514226    1.943956
C       3.135614   -2.917675    2.380625
H       0.741769    2.044465    0.149779
H      -0.716741    1.887419   -0.847888
H      -0.821624    1.739526    0.922404
H      -0.939991   -0.495642   -0.194644
H       1.615253    0.049293   -1.214800
H       1.640851    0.006618    1.399770
H       0.346233   -0.945467    3.303749
H      -1.082044   -1.248707    2.207220
H      -0.844807   -2.690964    0.183839
H       0.732981   -3.203138   -0.424996
H       0.021082   -4.004571    0.990245
H       4.057879   -3.273012    2.768014
