12

N      -0.034505    1.261952    0.380580
C      -0.031038    0.054999   -0.000394
O       1.100958   -0.563086   -0.472058
N       1.118443   -1.961375   -0.916694
N       0.071935   -2.599207   -0.861476
C      -1.128594   -2.066144   -0.399790
C      -1.236803   -0.788071    0.029203
C      -2.455968   -0.249603    0.497098
C      -3.511056    0.176432    0.889577
H       0.894035    1.675985    0.283740
H      -1.962020   -2.754679   -0.412686
H      -4.432403    0.572999    1.240618
