13

C       0.025206    1.441688   -0.065910
N      -0.041233    0.006762   -0.269757
C      -1.074003   -0.649979    0.019742
O      -2.221039   -0.074580    0.549089
C      -3.328489   -0.801548    0.859283
O      -4.297723   -0.290874    1.312675
O      -3.291719   -2.145466    0.631746
N      -2.170657   -2.814442    0.094492
C      -1.158377   -2.088713   -0.177785
H       0.871202    1.654571    0.596346
H       0.253132    1.913902   -1.027494
H      -0.882567    1.886762    0.350720
H      -0.295997   -2.599642   -0.590081
