14

O       0.091725    1.385539    0.121161
C       0.056683   -0.018832    0.042417
C      -1.365406   -0.582823   -0.046499
O      -2.080480   -0.021436   -1.152984
C      -1.491647   -1.341317   -1.294732
C      -0.160666   -1.299735   -1.971398
C       0.697520   -0.564196   -1.248705
C       2.025110   -0.221786   -1.616571
N       3.116330    0.056341   -1.887680
H      -0.505066    1.711799   -0.566058
H       0.583655   -0.390279    0.927118
H      -1.947240   -0.778148    0.848605
H      -2.197787   -2.149313   -1.449723
H       0.052064   -1.765546   -2.924977
