18

C       0.049078    1.520664   -0.000659
C       0.047557    0.010583   -0.054722
O       0.765859   -0.404100   -1.187110
C       0.811382   -1.820995   -1.294484
C       1.468887   -2.418113   -0.049655
C       0.759089   -1.872542    1.204921
O       0.651806   -0.462208    1.148068
C      -0.568639   -2.507369    1.392673
N      -1.599558   -3.008753    1.538972
H       1.077830    1.883544    0.060527
H      -0.417925    1.921389   -0.902809
H      -0.505027    1.863344    0.875620
H      -0.979112   -0.394608   -0.106421
H      -0.205981   -2.224431   -1.421312
H       1.384436   -2.049903   -2.195769
H       1.435883   -3.511450   -0.067660
H       2.513987   -2.099105   -0.000992
H       1.348926   -2.090787    2.100529
