19

O      -0.284411    1.278389    0.202607
C       0.027672   -0.085948    0.120943
C       0.578081   -0.396247   -1.256752
O       0.720426    0.466705   -2.090625
C       1.032314   -0.516366    1.223003
C       0.580603   -0.016364    2.620071
C      -0.032563   -1.273574    3.287574
O      -0.058631   -2.293090    2.290548
C       1.034394   -2.042036    1.427131
H      -0.030521    1.656948   -0.654398
H      -0.883725   -0.695525    0.254410
H       0.853833   -1.448488   -1.465900
H       2.024884   -0.132944    0.968290
H       1.434695    0.354268    3.191832
H      -0.130368    0.804391    2.525059
H       0.576551   -1.599542    4.143943
H      -1.058498   -1.127936    3.635101
H       0.877115   -2.630822    0.518500
H       1.986448   -2.363995    1.881001
