18

C      -0.113663    1.509357    0.008710
C       1.213163    0.774722    0.004752
C      -0.076556    0.013603    0.003883
C      -0.467194   -0.996395    1.042689
C      -1.742810   -1.736925    0.706217
C      -2.679966   -1.161108   -0.297447
C      -1.977599   -0.802041   -1.373140
C      -0.514597   -1.017233   -1.065118
N      -0.482333   -2.108039    0.022538
H      -0.418361    2.012925    0.920535
H      -0.416609    2.018156   -0.900767
H       1.800102    0.785784   -0.908616
H       1.807157    0.781304    0.913414
H       0.009355   -1.111733    2.012711
H      -2.092737   -2.453882    1.443509
H      -3.743808   -1.049622   -0.134977
H      -2.344713   -0.297354   -2.257424
H       0.160425   -1.199332   -1.901474
