17

C      -0.077096    1.618886   -0.009958
C      -0.066784    0.079252   -0.024017
C       0.620264   -0.480054   -1.182136
C       1.197659   -0.929842   -2.139577
C       1.862023   -1.430019   -3.311643
O       3.227264   -1.835803   -3.201147
C       2.269105   -2.856590   -3.478646
C       2.028302   -3.835670   -2.374290
O       1.642148   -4.960134   -2.565138
H       0.941847    2.014346    0.004407
H      -0.580761    2.012826   -0.896620
H      -0.602625    1.984837    0.876614
H       0.411203   -0.296600    0.889394
H      -1.096898   -0.298712   -0.002088
H       1.637566   -0.899910   -4.237416
H       2.286591   -3.277069   -4.483133
H       2.241987   -3.434102   -1.362218
