21

O       0.101125    1.417333   -0.036898
C       0.048542    0.008442   -0.069704
C      -1.379871   -0.542483    0.044420
C      -1.430376   -2.078432   -0.116383
C      -2.843412   -2.643351    0.069881
C      -3.416348   -2.253285    1.437408
C      -3.412399   -0.724046    1.628513
C      -2.047487   -0.117393    1.351361
O      -1.527854    0.667208    2.120939
H      -0.226601    1.658694    0.839682
H       0.477952   -0.303883   -1.028339
H       0.666864   -0.439235    0.725513
H      -1.984908   -0.094382   -0.759345
H      -1.034612   -2.346815   -1.102250
H      -0.757346   -2.535969    0.622021
H      -3.498901   -2.262522   -0.725114
H      -2.826914   -3.733601   -0.034274
H      -4.435407   -2.635382    1.556300
H      -2.814310   -2.716281    2.229997
H      -4.117001   -0.273620    0.914188
H      -3.725252   -0.428566    2.632793
