16

C       0.043777    1.536249   -0.137083
C      -0.006117    0.017822    0.111522
C      -1.408077   -0.528735    0.083360
N      -2.012973   -0.848630    1.225222
C      -3.264807   -1.320222    1.159089
C      -3.923584   -1.479839   -0.049984
N      -3.333881   -1.162850   -1.211913
C      -2.115557   -0.700867   -1.119982
F      -1.508032   -0.373581   -2.260392
H       1.076188    1.895385   -0.100113
H      -0.366455    1.785425   -1.119737
H      -0.531643    2.074510    0.622001
H       0.595808   -0.491769   -0.649124
H       0.417942   -0.219013    1.090562
H      -3.745048   -1.577318    2.098397
H      -4.936866   -1.866760   -0.101175
