21

C       0.314248    1.566220    0.184212
C      -0.053715    0.071292    0.130862
C       0.506689   -0.664421    1.356411
C      -1.585002   -0.069102    0.086901
N       0.424280   -0.667372   -1.068720
C       0.754370   -0.034552   -2.321469
C       1.810843   -0.744481   -1.518160
C       2.895598    0.016854   -0.941664
N       3.797635    0.575030   -0.478489
H       1.392785    1.736403    0.179500
H      -0.132599    2.121062   -0.646899
H      -0.081769    1.998720    1.108116
H       0.066736   -0.262020    2.273552
H       0.272302   -1.731273    1.299956
H       1.592259   -0.551319    1.428071
H      -1.993021    0.400950   -0.813970
H      -1.874642   -1.122951    0.081082
H      -2.039333    0.416433    0.956112
H       0.369953   -0.507157   -3.222107
H       0.839097    1.048657   -2.369594
H       2.124764   -1.742182   -1.817426
