16

C      -0.003341    1.428933   -0.011813
O      -0.024718    0.021201    0.049458
C       0.617480   -0.566759   -1.065052
C       0.574931   -2.016863   -0.965911
C       0.559159   -3.225763   -0.917663
C       0.537146   -4.583799   -0.855893
C       0.517958   -5.792698   -0.801572
C       0.494008   -7.242504   -0.734912
H       1.025386    1.823327   -0.020970
H      -0.523852    1.808350   -0.905692
H      -0.515783    1.797485    0.879291
H       0.131956   -0.244782   -2.003906
H       1.667992   -0.229894   -1.126659
H       0.982754   -7.685487   -1.610097
H       1.014911   -7.607637    0.157424
H      -0.533706   -7.621378   -0.700513
