17

O       0.141515    1.305047    0.330016
C       0.092174   -0.068262   -0.020083
C      -1.363037   -0.495170    0.019368
C      -1.659701   -2.009425   -0.191725
C      -2.344833   -2.019687    1.206477
N      -1.946571   -0.620838    1.361806
C      -2.316145    0.278903    2.304261
O      -2.958315   -0.004664    3.296531
H       1.059783    1.557716    0.462227
H       0.486347   -0.243950   -1.034890
H       0.670307   -0.688070    0.681897
H      -1.940926    0.169909   -0.634660
H      -2.309145   -2.241172   -1.035435
H      -0.761422   -2.627214   -0.252859
H      -3.430647   -2.160710    1.195864
H      -1.913212   -2.693156    1.952901
H      -1.948649    1.295833    2.071537
