19

C       0.072815    1.553613   -0.105608
C       0.005605    0.049809   -0.007828
C      -1.342481   -0.589918    0.457628
C      -0.645716   -1.212502    1.704455
C       0.726510   -0.806971    1.115043
N       1.176326   -1.752164    0.054094
C       0.785709   -0.808796   -1.028088
C       1.758921   -0.279253    1.979581
N       2.593024    0.150905    2.657483
H       1.104739    1.904265   -0.208428
H      -0.492073    1.904505   -0.977862
H      -0.357888    2.031527    0.780593
H      -2.123340    0.137247    0.690065
H      -1.746511   -1.321003   -0.245993
H      -0.875453   -0.673829    2.626989
H      -0.765708   -2.284753    1.864770
H       2.162966   -1.979464    0.090845
H       0.207030   -1.274332   -1.833935
H       1.627196   -0.258079   -1.468827
