19

C       0.029498    1.576448    0.072507
C       0.002866    0.035893    0.040943
C       0.773634   -0.507334    1.156615
C       1.429205   -0.923183    2.074448
C      -1.466634   -0.529758    0.023972
C      -1.474736   -2.062126    0.080827
O      -2.188744   -0.093680    1.174021
C      -2.136518   -0.071109   -1.204282
C      -2.693246    0.316991   -2.197071
H       1.058978    1.937600    0.019893
H      -0.529039    1.987067   -0.772675
H      -0.403299    1.947705    1.005808
H       0.467232   -0.297101   -0.896549
H       2.004537   -1.298930    2.883997
H      -1.028877   -2.388960    1.021979
H      -2.503174   -2.423942    0.025270
H      -0.904786   -2.482980   -0.751273
H      -2.436663    0.827234    1.041979
H      -3.191686    0.649921   -3.074209
