23

C       0.086192    1.567952   -0.135180
C      -0.030432    0.042343    0.031843
C       0.664647   -0.489976    1.263822
C      -0.017894   -0.910132    2.332764
C       0.610705   -1.455792    3.588848
C       2.091227   -1.807703    3.384483
C       2.806346   -0.702606    2.605334
O       4.185127   -0.987215    2.398728
C       2.177071   -0.532862    1.224349
H       1.129670    1.890566   -0.204822
H      -0.422657    1.898848   -1.046087
H      -0.367118    2.086596    0.715444
H      -1.090055   -0.233736    0.066952
H       0.389658   -0.443738   -0.860028
H      -1.105466   -0.862095    2.316253
H       0.506052   -0.720917    4.401649
H       0.058131   -2.340754    3.928699
H       2.583171   -1.968164    4.352450
H       2.183867   -2.742190    2.817733
H       2.694373    0.245431    3.159597
H       4.595936   -1.099416    3.261973
H       2.510218   -1.368007    0.590798
H       2.578902    0.371345    0.752818
