19

C      -0.044893    1.578123   -0.042329
C      -0.014988    0.055088   -0.017514
C      -1.399455   -0.560790    0.202096
O      -1.929997   -0.303521    1.491252
C       0.724046   -0.637738   -1.178149
O       2.098307   -0.225125   -1.129461
C       1.672281   -1.303025   -0.271997
C       1.060516   -0.614865    0.956050
O       1.915681    0.220038    1.683899
H       0.923788    1.982546   -0.344842
H      -0.798100    1.947120   -0.748450
H      -0.269307    1.984340    0.949789
H      -2.086017   -0.217973   -0.589704
H      -1.338718   -1.652776    0.124001
H      -2.041918    0.647601    1.584591
H       0.343257   -0.958153   -2.141935
H       2.209337   -2.240390   -0.361323
H       0.581295   -1.290821    1.666586
H       2.468988    0.671651    1.033907
