15

N      -0.074756    1.238805    0.284678
C      -0.032808    0.010477    0.009540
O       1.113844   -0.705860   -0.241431
C       0.822669   -1.955498   -0.877925
C      -0.669053   -2.203766   -0.652551
C      -1.126656   -2.136217    0.785842
C      -1.208073   -0.898784   -0.072107
C      -1.389722   -2.982761   -1.614044
N      -1.957545   -3.621975   -2.393104
H       0.859089    1.650628    0.254056
H       1.045171   -1.883843   -1.948087
H       1.458883   -2.723421   -0.429444
H      -2.063818   -2.623958    1.023672
H      -0.364360   -2.187662    1.556076
H      -2.168992   -0.487259   -0.345137
