19

C      -0.021462    1.200417   -1.068093
O       0.172910   -0.181872   -1.278342
C       0.782900   -0.834699   -0.172579
C       0.844522   -2.288905   -0.526702
C      -0.297541   -3.154496   -1.002556
C       0.926397   -2.945598   -1.875473
O       0.908208   -2.429583   -3.155125
C       2.106303   -3.717063   -1.294813
O       1.892542   -3.103844    0.014037
H      -0.667906    1.386590   -0.197864
H       0.933216    1.723988   -0.909930
H      -0.504063    1.601624   -1.962025
H       1.805031   -0.458816   -0.007263
H       0.203356   -0.647073    0.746116
H      -0.501810   -4.101152   -0.508336
H      -1.164565   -2.601127   -1.349722
H       0.712820   -1.487921   -3.067188
H       2.047875   -4.810283   -1.256963
H       3.065865   -3.400468   -1.717404
