21

C      -0.048769    1.519177    0.036844
C       0.035302    0.018647    0.031894
C       0.147009   -0.693276   -1.108007
C       0.120722   -2.138978   -1.247291
C       0.841745   -2.699317   -2.452252
C      -0.605635   -2.967839   -0.445215
C      -1.450684   -2.575489    0.658664
C      -1.244945   -1.513534    1.458079
C       0.016454   -0.693845    1.367603
H       0.773331    1.959251    0.616901
H      -0.018067    1.933444   -0.974327
H      -0.977730    1.858796    0.512341
H       0.263627   -0.139753   -2.039492
H       1.919204   -2.501179   -2.398696
H       0.700098   -3.779331   -2.541940
H       0.484203   -2.231552   -3.378144
H      -0.647417   -4.017472   -0.730669
H      -2.327413   -3.196599    0.832847
H      -1.992061   -1.238764    2.197490
H       0.888673   -1.358926    1.437388
H       0.078932    0.023246    2.190506
