20

N       0.351546    1.055863   -0.392212
C       0.178048   -0.162129   -0.111156
O      -1.059459   -0.692272   -0.135105
C      -1.223086   -2.050341    0.240067
C      -2.093521   -2.329981    1.490951
C      -2.813709   -3.459368    0.693127
C      -2.226532   -2.853172   -0.589498
C      -3.010970   -2.280212   -1.732677
C      -2.059249   -3.432424   -1.960302
H       1.341500    1.285451   -0.336265
H       0.957881   -0.887542    0.161706
H      -0.241484   -2.539247    0.295745
H      -1.575429   -2.601084    2.413130
H      -2.754282   -1.481615    1.681572
H      -2.414044   -4.453070    0.917707
H      -3.902729   -3.494770    0.768647
H      -4.077000   -2.481378   -1.766330
H      -2.721659   -1.298821   -2.091571
H      -1.133400   -3.230700   -2.490761
H      -2.477486   -4.415545   -2.151678
