18

N      -0.147063    1.529737    0.091271
C      -0.049147    0.072665    0.030637
C       0.620706   -0.567780    1.273688
C      -0.551070   -0.803063    2.200136
C      -1.711094   -0.784422    1.548642
C      -1.522260   -0.535552    0.052851
N      -2.568687    0.305769   -0.527072
C      -1.508829   -1.832876   -0.646176
N      -1.473655   -2.847315   -1.200261
H      -0.294196    1.836639    1.048780
H       0.713150    1.956375   -0.232244
H       0.455735   -0.188837   -0.901760
H       1.108111   -1.518726    1.019062
H       1.394666    0.082159    1.696539
H      -0.433611   -0.998964    3.259823
H      -2.700024   -0.957626    1.952603
H      -2.227457    1.265501   -0.469335
H      -2.668973    0.100854   -1.516643
