21

C      -0.100118    1.553645   -0.033765
C       0.011459    0.033508   -0.001758
C       1.132527   -0.558789   -0.880891
N       1.277585   -1.995919   -0.678519
C       1.868926   -1.100185    0.317507
C       3.324130   -1.218770    0.650916
C       0.768339   -0.557220    1.217326
C       0.876064    0.020110    2.571243
N       0.230060   -1.296326    2.361966
H       0.873697    2.023641    0.138399
H      -0.472800    1.895743   -1.005399
H      -0.790658    1.920849    0.732786
H      -0.971000   -0.421671   -0.189679
H       1.516342   -0.122091   -1.796875
H       0.420288   -2.437152   -0.347887
H       3.893370   -1.502197   -0.237935
H       3.721823   -0.274369    1.037235
H       3.484673   -1.990070    1.413175
H       1.819664   -0.020409    3.109367
H       0.254062    0.876251    2.821174
H      -0.781369   -1.187500    2.399503
