20

C       2.119059   -0.426807    0.986380
C       0.695789   -0.049293    0.560485
C       0.437008    1.452143    0.716442
C       0.372040   -0.527301   -0.888936
C       1.250259    0.058207   -1.896445
C       1.980938    0.533722   -2.726801
C       0.301297   -2.076393   -0.918393
N       1.037513   -2.692774   -1.874338
O      -0.395025   -2.670528   -0.118290
H       2.282845   -1.507160    0.925476
H       2.865254    0.067856    0.355503
H       2.299471   -0.121995    2.021822
H      -0.011117   -0.600462    1.188652
H       1.101098    2.038856    0.072565
H      -0.595800    1.709555    0.457950
H       0.611072    1.764628    1.750895
H      -0.656529   -0.208705   -1.106290
H       2.615397    0.969492   -3.458915
H       1.611264   -2.167815   -2.512225
H       1.009465   -3.697385   -1.926749
