15

N       0.027721    1.418291    0.086950
C      -0.014311    0.021054    0.024514
C      -1.188461   -0.717651    0.059203
C      -1.097828   -2.105251    0.013504
F      -2.219602   -2.836777    0.043269
C       0.133114   -2.723876   -0.075500
N       1.271456   -2.015512   -0.086862
C       1.208236   -0.694316   -0.030524
N       2.404094    0.035653   -0.086796
H       0.749550    1.808869   -0.508280
H      -0.862578    1.863252   -0.091841
H      -2.160900   -0.238872    0.102732
H       0.207223   -3.805357   -0.126140
H       3.201455   -0.584081   -0.013770
H       2.452119    0.772209    0.608616
