23

C      -0.086349    1.507205    0.096653
C       0.069857   -0.017592    0.017200
C       0.717877   -0.462238   -1.301982
C       0.852255   -0.544634    1.191314
C       2.279680   -0.186162    1.695355
C       1.568196   -1.047367    2.758840
O       0.346218   -0.235239    2.563532
C       1.088236   -2.022671    1.651918
C      -0.110003   -2.913648    1.917582
H       0.883229    2.006077   -0.012028
H      -0.740196    1.870590   -0.702342
H      -0.512560    1.804508    1.057895
H      -0.929759   -0.469558    0.082022
H       1.726157   -0.045212   -1.404067
H       0.796916   -1.552133   -1.366526
H       0.127020   -0.116636   -2.155613
H       3.137378   -0.614326    1.169878
H       2.424127    0.857890    1.974175
H       1.864293   -1.258435    3.787060
H       1.891371   -2.545290    1.120971
H      -0.884082   -2.358886    2.451994
H      -0.534827   -3.293083    0.981557
H       0.175817   -3.782335    2.520766
