16

C      -0.054482    1.411188    0.078965
N       0.033105   -0.026074   -0.057152
C       0.612574   -0.676307   -1.066624
N       1.185516   -0.035540   -2.089171
H       1.592966   -0.625230   -2.801529
H       1.217310    0.963957   -2.173456
C       0.623639   -2.096186   -1.058372
N       1.185714   -2.844133   -2.039155
C       0.931659   -4.065527   -1.566461
N       0.264121   -4.084642   -0.381786
N       0.066319   -2.806137   -0.056911
H       0.939098    1.873774    0.132886
H      -0.610953    1.862581   -0.752083
H      -0.584164    1.643521    1.002940
H      -0.355586   -0.644235    0.644986
H       1.226155   -4.975852   -2.070409
