14

C       0.369990    1.271771    0.334065
C      -0.212279   -0.105746    0.171313
O      -0.898562   -0.678568    0.982787
C      -0.002592   -0.795456   -1.192147
O      -0.035991   -0.177632   -2.229398
C       0.252055   -2.316257   -1.160278
C      -0.360233   -3.132298   -2.265835
O       0.991866   -2.736802   -0.303878
H       0.126906    1.883240   -0.539662
H      -0.001834    1.731198    1.250289
H       1.463625    1.198232    0.376295
H      -0.176102   -2.649133   -3.229698
H       0.041596   -4.145772   -2.251790
H      -1.448142   -3.165355   -2.129498
