17

O      -0.702285    0.989859    0.548893
C       0.286901    0.869711   -0.136107
C       1.453126    1.788132   -0.075593
C       1.842834    2.510346    1.227105
C       2.648488    3.613630    0.508103
N       1.632673    4.329333   -0.309339
C       1.540932    3.110353   -1.079329
C       3.022774    2.794110   -0.834376
N       2.741106    1.367318   -0.683799
H       0.373906    0.070387   -0.904950
H       0.992719    2.905880    1.788376
H       2.433130    1.862238    1.882620
H       3.360500    4.217395    1.068828
H       0.792464    4.615857    0.191833
H       1.012199    3.071685   -2.029052
H       3.850124    3.132750   -1.454806
H       3.355624    0.867986   -0.040260
