18

C      -0.255838    1.623541    0.144348
C       0.065784    0.134353    0.014558
C      -1.231479   -0.702101   -0.099187
N       1.021532   -0.107286   -1.088669
C       1.807895   -1.317053   -0.830332
C       1.951309   -1.330967    0.681532
O       2.723012   -1.953476    1.356321
C       0.847926   -0.377043    1.223232
O       0.651103   -0.132934    2.381790
H       0.664807    2.210507    0.178774
H      -0.847869    1.964179   -0.711582
H      -0.827182    1.807079    1.058225
H      -1.785130   -0.400446   -0.995218
H      -1.022596   -1.774468   -0.174854
H      -1.873631   -0.543984    0.771995
H       0.557605   -0.131595   -1.988691
H       1.326581   -2.265547   -1.131098
H       2.786616   -1.278959   -1.318393
