17

C       0.175077    1.399460    0.091867
O      -0.144834    0.041172   -0.140989
C       0.624966   -0.576691   -1.155174
C       2.054987   -0.641680   -0.845174
C       3.230834   -0.678870   -0.601737
C       0.017438   -1.986171   -1.356995
O       0.245147   -2.832556   -0.275885
C      -1.474764   -1.830181   -1.613270
O      -2.292806   -2.416231   -0.951298
H       1.209617    1.516324    0.437849
H       0.035510    2.006700   -0.815763
H      -0.507880    1.753810    0.866438
H       0.502110   -0.023723   -2.105313
H       4.268909   -0.725240   -0.381128
H       0.471119   -2.400796   -2.273721
H      -0.628900   -3.016896    0.102338
H      -1.763795   -1.158909   -2.447428
