16

C      -0.008850    1.642697    0.027392
C      -0.013666    0.126979    0.007852
C       1.200687   -0.623568   -0.609551
O       2.032865   -0.197222    0.535215
C       0.751503   -0.644453    1.120765
C       0.833059   -1.908445    0.203093
C      -0.333286   -2.703800   -0.109292
C      -1.292739   -3.382219   -0.366507
H       0.981148    2.021618    0.289026
H      -0.289519    2.043515   -0.952487
H      -0.733086    2.022904    0.755758
H      -0.989187   -0.292772   -0.250457
H       1.637856   -0.557753   -1.606525
H       0.648212   -0.603767    2.205698
H       1.713392   -2.515221    0.424302
H      -2.140937   -3.979464   -0.593730
