16

O      -0.048480    1.440746   -0.108247
C       1.406476    1.433515    0.022582
C       2.031216    1.205751   -1.336882
C       2.645914   -0.131179   -1.471746
C       1.947543   -0.961142   -0.376983
C       1.392105    0.022738    0.694653
C      -0.021718    0.018245    0.063007
C       0.621340   -0.739573   -1.155028
N       1.327759    0.167480   -2.151842
H       1.771964    2.309298    0.562128
H       2.372905    2.045130   -1.932330
H       3.544100   -0.363381   -2.032762
H       2.323124   -1.936040   -0.076978
H       1.611707   -0.065088    1.757109
H      -0.936791   -0.388892    0.496904
H       0.066049   -1.524546   -1.666662
