15

C      -0.227664    1.479156    0.066153
C       0.093394    0.023207    0.000836
N       0.090764   -0.644648   -1.164350
N       0.428709   -1.876905   -0.719252
C       0.719664   -3.302373   -0.958989
C       0.945865   -3.384997    0.611610
C       0.607024   -1.898954    0.593778
N       0.408989   -0.711588    1.130834
H       0.611754    2.041621    0.486825
H      -0.446304    1.859931   -0.932744
H      -1.092909    1.655586    0.712811
H      -0.130048   -3.870296   -1.344494
H       1.605446   -3.477463   -1.573731
H       0.238914   -4.028865    1.138305
H       1.965054   -3.637836    0.910098
