23

C       0.000434    1.567621    0.043941
C       0.027700    0.037479    0.014208
C       0.696162   -0.496542   -1.263368
C       0.998025   -1.969362   -1.191724
C       0.982827   -2.696240   -0.071827
C       1.282441   -4.171582   -0.064801
C       0.638347   -2.073507    1.273019
O       1.516600   -2.515604    2.312360
C       0.731946   -0.550231    1.241845
H       1.017505    1.976417    0.070429
H      -0.497677    1.973231   -0.843477
H      -0.530977    1.939326    0.926302
H      -1.011560   -0.323301    0.018606
H       0.060537   -0.289321   -2.134731
H       1.629805    0.058492   -1.449161
H       1.248447   -2.458326   -2.132273
H       1.463924   -4.547128   -1.074935
H       2.167970   -4.392124    0.542710
H       0.449558   -4.749273    0.361418
H      -0.396654   -2.362744    1.531441
H       1.314722   -3.435603    2.505757
H       1.795734   -0.279200    1.227081
H       0.313135   -0.144602    2.169079
