22

C       0.290738    1.563911    0.103732
C      -0.217392    0.142857   -0.132330
N       0.588651   -0.502624   -1.166012
C       1.708347   -1.318838   -0.765472
C       0.496472   -1.964408   -1.387940
C      -0.385345   -2.895716   -0.574195
C       0.235801   -4.285700   -0.376153
C       0.590052   -2.258664   -2.853890
O       0.085105   -3.207827   -3.400070
H       1.323917    1.553572    0.465756
H       0.263029    2.141470   -0.823995
H      -0.325467    2.071340    0.852197
H      -0.210355   -0.410227    0.820396
H      -1.254789    0.168144   -0.484543
H       2.631980   -1.195572   -1.327224
H       1.845345   -1.524306    0.296900
H      -0.595308   -2.448757    0.401455
H      -1.345631   -3.000438   -1.091282
H      -0.430658   -4.923012    0.213021
H       0.408679   -4.772889   -1.337951
H       1.191912   -4.219703    0.154082
H       1.166575   -1.492042   -3.417353
