14

O      -0.040105   -0.100957    0.003978
C      -0.043457    1.125588    0.009965
C      -1.266196    1.933560    0.031039
C      -1.223076    3.285581    0.036703
N      -0.035307    3.963349    0.022908
C       1.169014    3.287336    0.002556
C       1.185709    1.925173   -0.004004
C       2.339206    4.096615   -0.010448
C       3.313429    4.802893   -0.021209
H      -2.217777    1.417015    0.042165
H      -2.109174    3.909290    0.052213
H      -0.021814    4.969459    0.027408
H       2.133330    1.402518   -0.020021
H       4.185800    5.409205   -0.031107
