18

C      -0.218001    1.568710   -0.041788
C      -0.101240    0.032598   -0.028330
C       0.817299   -0.417470    1.152253
O       0.336034   -0.011770    2.410830
C      -1.422513   -0.574370    0.192634
N      -2.444799   -1.069543    0.409767
C       0.480969   -0.547752   -1.321614
C       0.434279    0.128512   -2.621447
O       1.634788    0.105004   -1.838559
H       0.727190    1.991753   -0.390608
H      -1.025739    1.909112   -0.693108
H      -0.414188    1.921279    0.971842
H       0.962075   -1.506208    1.100315
H       1.790489    0.062107    1.014834
H      -0.469996   -0.506507    2.599920
H       0.546203   -1.636925   -1.320261
H       0.460729   -0.469026   -3.530450
H      -0.039194    1.102265   -2.715319
