17

C      -0.042312    1.477346    0.018091
N      -0.026813    0.023713   -0.059104
C       0.773875   -0.493235   -1.139902
C       0.708408   -2.045305   -1.142650
N       1.265714   -2.540001    0.124293
C      -0.694942   -2.496159   -1.244153
N      -1.775398   -2.888366   -1.346444
C       1.452193   -2.551775   -2.324618
N       2.095247   -2.936068   -3.204251
H       0.958429    1.935651    0.108368
H      -0.516870    1.889062   -0.879454
H      -0.638808    1.785125    0.880626
H       0.282273   -0.388130    0.814129
H       0.385932   -0.123008   -2.094856
H       1.846976   -0.219868   -1.101425
H       1.125252   -3.542391    0.208096
H       2.268795   -2.373561    0.131189
