17

C      -0.033820    1.582927   -0.054313
C       1.529165    1.354555   -0.023790
C       1.193088    0.175114    0.972184
C      -0.063625    0.008807    0.034307
C       0.631858   -0.346000   -1.283620
C       1.656848    0.539547   -1.294139
O       2.436034    0.425772   -2.381624
C       1.869673   -0.599711   -3.111040
C       0.762056   -1.106814   -2.482983
H      -0.406090    2.070491    0.852651
H      -0.456141    2.046323   -0.948534
H       2.238582    2.144597    0.211817
H       1.899309   -0.656435    1.022165
H       0.935456    0.531146    1.975057
H      -0.951840   -0.534018    0.351456
H       2.370826   -0.836161   -4.034176
H       0.148550   -1.912845   -2.855345
