20

C      -1.604685   -0.434699   -0.074524
C      -0.132736   -0.016030   -0.058024
C       0.019967    1.505672   -0.000653
N       0.500036   -0.591744    1.147664
C       2.023274   -0.632413    1.233475
C       1.823018   -1.743219    2.296718
C       0.805561   -2.086734    1.178122
C       1.932719   -1.753832    0.162286
O       2.330291   -2.045480   -0.921277
H      -2.108502   -0.101894    0.838447
H      -2.116059    0.006968   -0.934981
H      -1.712140   -1.521295   -0.146732
H       0.342841   -0.378971   -0.984024
H      -0.430459    1.902240    0.914747
H       1.072484    1.804469   -0.020122
H      -0.472469    1.969961   -0.860247
H       2.629160    0.269171    1.290831
H       2.645860   -2.438648    2.466382
H       1.352039   -1.383715    3.212346
H       0.023506   -2.842776    1.172387
