23

C      -0.160065    1.637870   -0.014865
C       0.017423    0.127475    0.002119
C       1.143229   -0.585671   -0.810166
C       2.435854    0.052747   -0.269158
C       2.094527    0.037105    1.258526
C       0.697850   -0.617590    1.209294
C      -0.025838   -0.873462    2.509986
C       0.972059   -1.768390    0.193271
O      -0.167450   -2.583742    0.021763
H       0.767310    2.183628    0.180828
H      -0.537824    1.972043   -0.987986
H      -0.890486    1.949825    0.740469
H      -0.936075   -0.359387   -0.210193
H       1.068176   -0.739770   -1.889147
H       3.320848   -0.545921   -0.506053
H       2.606890    1.059700   -0.658369
H       2.801158   -0.561996    1.841813
H       2.069093    1.036661    1.701684
H      -0.289348    0.067121    3.007636
H      -0.946443   -1.438722    2.337929
H       0.597031   -1.449158    3.204939
H       1.867018   -2.381956    0.378699
H      -0.051440   -3.092666   -0.786439
