18

C       0.009831    1.572927    0.095374
C       0.004734    0.040532    0.002748
C       0.624751   -0.580030    1.261613
O      -1.343860   -0.446532   -0.017704
C       0.721223   -0.442397   -1.237346
C       1.600936    0.183982   -2.063968
O       1.988928   -0.629010   -3.058840
N       1.346575   -1.855360   -2.913115
C       0.608191   -1.732081   -1.840508
H       1.026912    1.966538    0.190637
H      -0.444500    2.020696   -0.795120
H      -0.563958    1.887143    0.970907
H       0.063269   -0.262465    2.144805
H       0.589218   -1.670806    1.204498
H       1.667402   -0.271231    1.371222
H      -1.773846   -0.087642   -0.802101
H       2.033496    1.172105   -2.076007
H      -0.005229   -2.561558   -1.519141
