20

C       0.004917    1.433014   -0.315338
C       0.179698   -0.034402   -0.003405
N       1.560982   -0.558403    0.086611
C       0.709722   -0.567875    1.283544
C       1.130340    0.331155    2.426291
C       0.163150   -1.926700    1.752092
O      -0.236635   -2.684150    0.609824
C       1.149357   -2.675632    2.539483
C       1.935765   -3.335196    3.165745
H       0.781920    2.043973    0.148198
H       0.059844    1.595363   -1.397321
H      -0.972153    1.792783    0.026258
H      -0.535051   -0.683073   -0.502781
H       1.578557   -1.496839   -0.308600
H       1.544666    1.266954    2.050600
H       0.279373    0.565832    3.076520
H       1.898870   -0.154201    3.035516
H      -0.712302   -1.731322    2.393344
H      -0.231904   -3.613457    0.858166
H       2.638059   -3.905188    3.722973
