19

C       0.091673    1.575102    0.018307
C       0.009396    0.046454    0.019934
C       0.546297   -0.546973   -1.299231
C       0.862067   -2.031603   -1.243049
O       2.069726   -2.383487   -0.577685
C       0.836182   -2.790595    0.033350
C       0.473258   -2.055592    1.292406
O      -0.038002   -2.629520    2.226737
C       0.732262   -0.561946    1.245236
H       1.134442    1.909809   -0.027130
H      -0.433106    1.997903   -0.845082
H      -0.357161    1.996070    0.923379
H      -1.049592   -0.235906    0.101756
H      -0.176456   -0.363749   -2.102091
H       1.470855   -0.030644   -1.589341
H       0.685239   -2.601930   -2.155290
H       0.639382   -3.860669    0.041220
H       1.810933   -0.382478    1.162680
H       0.371842   -0.120843    2.177631
