20

C      -0.230613    1.523787    0.004908
C       0.023211    0.009373   -0.036063
N       0.675036   -0.408313   -1.285585
C       2.089152   -0.040341   -1.379710
C       2.954210   -0.420697   -0.167944
C       3.134047    0.559104    0.948340
C       2.234459   -0.657709    1.151272
C       0.752635   -0.498462    1.222884
O       0.128730   -0.825974    2.210768
H       0.692260    2.109391   -0.026603
H      -0.839080    1.813991   -0.855884
H      -0.763851    1.785292    0.922712
H      -0.954629   -0.482237   -0.001244
H       0.597322   -1.417607   -1.362670
H       2.492213   -0.521401   -2.275621
H       2.154843    1.038960   -1.558134
H       3.790600   -1.082184   -0.372605
H       4.064178    0.563475    1.505357
H       2.667624    1.533445    0.856368
H       2.612155   -1.413160    1.831653
