18

C      -0.313547    0.396232    0.584191
O       0.688606    0.100093    1.536914
C       1.849205   -0.463065    0.971428
C       1.649220   -1.878121    0.463825
N       1.919245   -2.225458   -0.713784
O       1.149708   -2.658683    1.516418
C       0.817566   -3.977553    1.388014
C       0.303833   -4.497152    2.705807
O       0.922760   -4.620698    0.376951
H      -0.684270   -0.504931    0.075241
H      -1.139248    0.861205    1.127319
H       0.052625    1.095913   -0.181974
H       2.230287    0.129065    0.129184
H       2.599457   -0.473866    1.769596
H       1.741047   -3.217813   -0.864407
H      -0.557603   -3.906271    3.029139
H       0.025316   -5.544564    2.598398
H       1.075791   -4.389688    3.473228
