18

C      -0.217038    1.447186   -0.105177
N       0.001402    0.010241   -0.003008
C       1.345265   -0.472103   -0.255358
C       0.788072   -0.495216    1.139808
C       1.323898    0.380922    2.145413
C       1.754909    1.098952    3.013186
C       2.239828    1.944162    4.093531
C       1.312173    1.927929    5.312171
O       1.704890    1.957481    6.445939
H       0.639318    2.052424    0.227055
H      -0.432738    1.688439   -1.150369
H      -1.087490    1.722270    0.497866
H       1.427988   -1.399993   -0.815119
H       2.127729    0.259511   -0.450757
H       0.417059   -1.444023    1.521104
H       3.245455    1.665791    4.426041
H       2.295431    2.990919    3.756305
H       0.229703    1.900248    5.060999
