15

C       0.000484    1.451539    0.029908
N      -0.026871    0.004896    0.037648
C      -0.139892   -0.833837   -1.053651
N      -0.139089   -2.127645   -0.761706
C      -0.018428   -2.110487    0.594271
C       0.052991   -0.842405    1.121857
N       0.173731   -0.821042    2.479780
C       0.175468   -2.110385    2.782241
N       0.061997   -2.945531    1.687598
H       0.937392    1.823826    0.455192
H      -0.084454    1.802702   -1.000295
H      -0.831482    1.858092    0.612817
H      -0.220581   -0.428315   -2.051642
H       0.256376   -2.507748    3.782634
H       0.045460   -3.950621    1.705602
