15

C      -0.029169    1.489120   -0.027189
C       0.010407   -0.006485   -0.050274
N       0.017262   -0.650676   -1.171245
C       0.048482   -2.030607   -1.158735
N       0.131147   -2.624409   -2.418758
C       0.055698   -2.707159    0.012666
O       0.051076   -2.051614    1.205192
C       0.036405   -0.682296    1.266607
O       0.038499   -0.127283    2.336133
H       0.841941    1.883742    0.506710
H      -0.049720    1.877938   -1.045472
H      -0.907123    1.839048    0.526293
H      -0.253131   -2.025131   -3.136588
H      -0.239500   -3.562314   -2.474791
H       0.072437   -3.782058    0.130667
