20

C      -0.399441    1.414705    0.393617
C      -0.214594   -0.093121    0.194584
C       0.913974   -0.641520    1.052107
O       0.623804   -0.520145    2.478574
C       0.619973   -1.943131    2.660966
C      -0.708936   -2.461107    3.012285
N      -1.752869   -2.880899    3.277267
C       1.088953   -2.181501    1.193113
C       0.319536   -3.139907    0.298650
H       0.500350    1.967255    0.101068
H      -1.233620    1.790564   -0.205240
H      -0.605390    1.637813    1.444072
H      -1.146436   -0.615113    0.438238
H       0.011183   -0.313929   -0.856921
H       1.846755   -0.111107    0.821054
H       1.327480   -2.257198    3.437169
H       2.148310   -2.448988    1.194728
H      -0.754228   -2.938759    0.300680
H       0.679324   -3.072208   -0.732861
H       0.462482   -4.172825    0.631521
