14

O       0.001905    0.079092   -0.045570
C       0.005962    1.270366    0.055744
C      -1.046212    2.334959   -0.005207
C      -0.405900    3.559793    0.620948
N       0.851770    3.113103    1.261594
C       1.104605    2.352380   -0.009500
C       0.007323    3.223161   -0.785993
C      -0.092895    3.808581   -2.061551
C      -0.149181    4.316881   -3.151914
H      -2.104361    2.257602   -0.210948
H      -1.005667    4.384296    0.984909
H       1.481403    3.915160    1.267493
H       2.126443    2.139539   -0.308146
H      -0.202711    4.762798   -4.114202
