16

O       0.315920    1.013599    0.685638
C      -0.044238    0.174710   -0.402178
C      -1.421254   -0.313849   -0.331850
C      -2.544453   -0.732104   -0.210919
C      -3.914826   -1.218392   -0.103050
C      -4.673527   -1.244746   -1.471037
O      -5.101111   -2.618742   -1.606962
C      -4.629498   -3.257257   -0.512113
N      -3.978977   -2.626892    0.372903
H       0.105049    0.538954    1.496626
H       0.095172    0.780725   -1.304366
H       0.638266   -0.685716   -0.490548
H      -4.450982   -0.594595    0.622395
H      -5.559130   -0.605841   -1.481181
H      -4.029191   -0.995282   -2.316152
H      -4.863979   -4.315597   -0.478983
