18

C       0.114125    1.566789    0.023496
C       0.180328    0.051756   -0.025175
O       1.077324   -0.349772   -1.064581
C       1.420693   -1.704928   -0.814282
C       1.568274   -1.815250    0.704306
C       2.753335   -1.045848    1.322908
O       1.892041    0.017871    1.782089
C       0.723235   -0.628979    1.238597
H       1.083847    1.970515    0.321114
H      -0.155083    1.964853   -0.958166
H      -0.638839    1.892856    0.747641
H      -0.821147   -0.371858   -0.225278
H       0.627588   -2.383867   -1.169880
H       2.338437   -1.927539   -1.366822
H       1.379963   -2.813002    1.099525
H       3.255621   -1.546648    2.159237
H       3.505667   -0.687020    0.609794
H      -0.041208   -0.801172    2.003145
