21

C       0.076142    1.588062   -0.108967
C       0.089787    0.071880    0.016013
C       1.147557   -0.740862   -0.780976
O       2.415386   -0.153010   -0.375875
C       2.200087   -0.769367    0.902669
C       3.344420   -0.831743    1.855875
C       1.213767   -1.774611    0.396511
C       0.699064   -0.611577    1.252864
C       0.142273   -0.630535    2.645334
H       1.090206    1.984893   -0.018998
H      -0.329331    1.900450   -1.078070
H      -0.546194    2.043099    0.669543
H      -0.902829   -0.357027   -0.167244
H       1.078922   -0.928845   -1.850904
H       3.661129    0.176482    2.144805
H       3.065620   -1.373574    2.763769
H       4.199588   -1.341507    1.401248
H       1.123918   -2.849716    0.477284
H       0.715285   -1.293637    3.302074
H       0.157352    0.369287    3.094751
H      -0.896088   -0.982298    2.652218
