21

C       0.797324    0.912157   -0.850937
O       1.231658   -0.419054   -0.694073
C       1.383841   -0.797672    0.637998
C       0.140045   -1.175549    1.539800
C      -0.503789   -2.262206    0.676247
C       0.538076   -2.985603    0.255465
C       1.744923   -2.288708    0.897288
C       1.169086   -2.059486    2.353304
C       2.044436   -1.411907    3.421175
H       1.482362    1.625657   -0.365299
H       0.772253    1.122485   -1.922825
H      -0.210001    1.067618   -0.436345
H       2.056754   -0.092968    1.144470
H      -0.491697   -0.430161    2.023458
H      -1.558015   -2.375969    0.468636
H       0.570855   -3.853176   -0.387379
H       2.745027   -2.682219    0.714803
H       0.705751   -2.961506    2.760155
H       2.544866   -0.497887    3.092810
H       1.441462   -1.160022    4.301051
H       2.820360   -2.112855    3.749129
