20

C      -0.066814    1.584897    0.143649
C       0.015070    0.071045    0.082121
C      -1.242792   -0.568838   -0.470367
O      -1.406153   -0.156394   -1.823649
C       1.265879   -0.690332   -0.289200
C       2.536348   -0.024372    0.253493
C       1.946512   -0.108174    1.699204
C       0.689187   -0.780604    1.131818
H       0.864173    2.047846    0.476318
H      -0.309640    1.983710   -0.845210
H      -0.857797    1.900199    0.835181
H      -1.162918   -1.665461   -0.401716
H      -2.108887   -0.261439    0.138008
H      -2.273106   -0.446669   -2.121465
H       1.243931   -1.426693   -1.084315
H       3.419357   -0.656840    0.138248
H       2.774407    0.969992   -0.137197
H       2.525060   -0.779107    2.337877
H       1.798304    0.833602    2.236973
H       0.167147   -1.605641    1.605102
