16

C      -0.078472    1.399857    0.049899
N      -0.073740   -0.033893   -0.136288
C       0.614305   -0.618045   -1.152524
N       1.241668    0.091040   -2.021627
C       0.558319   -2.106635   -1.148223
N      -0.055760   -2.745783   -0.176859
O       0.071453   -4.093804   -0.457471
C       0.764176   -4.231774   -1.599386
C       1.107554   -3.019294   -2.096449
H       0.931975    1.786867    0.228556
H      -0.468393    1.904692   -0.839961
H      -0.712019    1.642115    0.905383
H      -0.488386   -0.635789    0.553905
H       1.692067   -0.497907   -2.716905
H       0.930556   -5.246016   -1.926956
H       1.660248   -2.806310   -2.995396
