23

C       0.251740    1.376045   -0.061907
C      -0.050796   -0.125466   -0.038051
C      -1.548415   -0.485971    0.020712
C      -2.298892   -0.035122   -1.242081
C      -1.707409   -1.996532    0.277398
C      -3.142442   -2.442039    0.540164
O      -3.164311   -3.813325    0.966255
C      -3.634343   -4.736609    0.110083
O      -3.660989   -5.903450    0.362951
H       1.331115    1.553779   -0.031134
H      -0.131807    1.861928   -0.964097
H      -0.191571    1.882469    0.803042
H       0.396623   -0.605287   -0.919547
H       0.446499   -0.571000    0.832611
H      -1.981880    0.045519    0.881989
H      -2.178830    1.037039   -1.417826
H      -1.922119   -0.562239   -2.127236
H      -3.373790   -0.227936   -1.172182
H      -1.308537   -2.562847   -0.575178
H      -1.107794   -2.284188    1.148641
H      -3.590376   -1.862004    1.353562
H      -3.776854   -2.324745   -0.346425
H      -3.995256   -4.295007   -0.840794
