19

C       0.044951    1.586438   -0.163788
O       1.502639    1.469811    0.085583
C       1.129827    0.307951    0.917929
C       1.244247   -1.233212    1.206279
C      -0.372092   -1.100464    1.135393
C      -0.074015    0.048579    0.087989
C       0.293243   -0.654362   -1.211020
C       1.146475   -1.673467   -1.228184
C       1.781947   -2.096745    0.068329
H      -0.425508    2.228644    0.590315
H      -0.155038    1.951813   -1.175420
H       0.855333    0.745855    1.889361
H       1.671956   -1.516076    2.171171
H      -0.910305   -1.973192    0.760280
H      -0.789155   -0.766098    2.086294
H      -0.189979   -0.295769   -2.116342
H       1.397513   -2.204498   -2.141348
H       2.875584   -2.006542    0.015233
H       1.580448   -3.157740    0.273440
