20

C      -0.096939    1.560891   -0.037176
C      -0.006097    0.033770    0.014486
C       0.645696   -0.610756   -1.236788
C       1.275255   -1.940438   -0.755214
C       1.536465   -1.749502    0.733442
C       2.307259   -0.512786    1.185882
C       3.109775    0.281634    0.299138
N       3.784429    0.918374   -0.393873
C       0.779158   -0.535551    1.192934
H       0.895702    2.012555   -0.125546
H      -0.690139    1.884980   -0.898534
H      -0.573883    1.961661    0.863530
H      -1.023485   -0.368284    0.119904
H      -0.083866   -0.767804   -2.035589
H       1.415998    0.051819   -1.638169
H       0.569484   -2.770604   -0.871888
H       2.176640   -2.202323   -1.317965
H       1.644761   -2.627620    1.360414
H       2.755194   -0.597854    2.171447
H       0.325858   -0.490313    2.177632
