23

C      -0.279342    0.816678   -1.939605
C      -0.000993   -0.264351   -0.914088
C       1.383826   -0.582954   -0.395092
C       2.631313    0.156441   -0.833066
C       0.350597    0.023382    0.538103
C       0.478639    1.412439    1.084283
C      -0.715137    2.005628    1.872740
C       0.311001    2.193020    3.005434
O       1.315886    1.462018    2.274782
H       0.380206    1.681587   -1.840490
H      -0.149194    0.424362   -2.954458
H      -1.310112    1.179429   -1.857534
H      -0.644600   -1.131418   -1.043711
H       1.567111   -1.640129   -0.218208
H       2.451548    1.214132   -1.038218
H       3.401740    0.103861   -0.056884
H       3.043188   -0.287423   -1.746270
H      -0.074566   -0.661713    1.268475
H       0.865728    2.107805    0.329738
H      -1.172676    2.907764    1.463685
H      -1.494924    1.273221    2.092749
H       0.610669    3.234773    3.184328
H       0.080417    1.723884    3.968957
