14

O       0.099553    1.382901    0.051274
C      -0.034778    0.042654    0.019258
C      -1.170043   -0.613273   -0.209095
N      -1.151130   -2.003658   -0.320571
C      -0.024484   -2.767695   -0.144111
N      -0.063369   -4.038818   -0.238253
C       1.230420   -1.989479    0.161717
N       2.316523   -2.598065    0.370362
O       1.162959   -0.614639    0.193207
H       0.770862    1.609504    0.707318
H      -2.112574   -0.103520   -0.326427
H      -1.999138   -2.509322   -0.518869
H       0.871983   -4.408769   -0.072803
H       3.078584   -1.946280    0.556742
