19

C      -0.060729    1.374006    0.013096
O       0.098376   -0.026005   -0.022228
C       0.662708   -0.559737    1.164084
C       0.655686   -2.069831    0.995746
O      -0.651081   -2.530537    0.744444
C       1.734697   -2.695637    0.020062
C       2.286944   -3.471707    1.220526
O       2.665038   -2.502264    2.211253
C       1.290346   -2.892842    2.132973
H       0.904874    1.887103    0.135521
H      -0.505002    1.677577   -0.937925
H      -0.723801    1.686433    0.834408
H       1.684658   -0.190768    1.322589
H       0.049827   -0.279589    2.037028
H      -1.027081   -1.908161    0.108083
H       1.236669   -3.333492   -0.712359
H       2.437189   -2.019767   -0.472702
H       2.793238   -4.429005    1.253960
H       0.809861   -3.279448    3.024338
