20

C       0.055170    1.530035    0.064903
C      -0.007272   -0.012265    0.003239
C       0.685408   -0.600663    1.252405
C      -1.476729   -0.465062   -0.029278
C       0.721452   -0.486548   -1.234428
N       0.135403   -1.199602   -2.200259
N       1.110503   -1.400587   -3.079027
N       2.293433   -0.883464   -2.781742
C       2.070565   -0.294535   -1.607978
H       1.088846    1.889055    0.096141
H      -0.430353    1.977957   -0.807501
H      -0.453549    1.895431    0.963408
H       0.183115   -0.256842    2.162961
H       0.655837   -1.694467    1.239249
H       1.734280   -0.293015    1.312170
H      -1.996455   -0.063288   -0.903046
H      -1.555339   -1.554557   -0.071914
H      -1.992911   -0.115947    0.871071
H       0.957473   -1.919757   -3.927921
H       2.864492    0.226249   -1.097189
