21

C       0.255338    1.453057    0.013301
C       0.024146   -0.027305   -0.000345
C      -0.157007   -0.797164   -1.077356
C      -0.356537   -2.258481   -0.753893
C      -0.104373   -2.306089    0.758317
O       1.282876   -2.552147    1.088243
C       1.407685   -1.282266    1.756020
C      -0.003479   -0.842846    1.280122
C      -0.971151   -0.343374    2.344358
H       1.201030    1.705634    0.510319
H       0.289545    1.860392   -1.000604
H      -0.534718    1.980639    0.561721
H      -0.162970   -0.422572   -2.096508
H      -1.363294   -2.608311   -1.020639
H       0.355809   -2.913664   -1.269755
H      -0.766607   -2.990456    1.301766
H       1.499415   -1.400506    2.845253
H       2.261306   -0.702138    1.384688
H      -0.676291    0.643052    2.719447
H      -1.987239   -0.255415    1.944615
H      -1.001193   -1.025995    3.199811
