15

C       0.229521    1.102622   -0.780231
N      -0.205323    0.413867    0.431484
C      -1.455615   -0.319467    0.280688
C      -1.388120   -1.472272   -0.628978
C      -1.261365   -2.391843   -1.392007
C      -1.931893   -0.756619    1.675628
F      -2.186821    0.301658    2.446153
F      -3.050361   -1.485680    1.594871
F      -0.997916   -1.499275    2.288614
H       1.185854    1.592989   -0.581689
H       0.347306    0.443607   -1.654363
H      -0.497894    1.880978   -1.035290
H       0.512484   -0.232612    0.742289
H      -2.217018    0.382417   -0.082276
H      -1.166716   -3.212783   -2.059669
