21

C      -0.355492    1.487051   -0.055774
C       0.120218    0.033171    0.060750
C       0.849385   -0.466587   -1.169221
C       0.078467   -0.968754   -2.378264
C       0.929006   -1.925028   -1.567663
C       2.349314   -2.220312   -2.057823
O       2.435923   -2.883849   -3.313395
C       3.006249   -0.848128   -2.035497
C       2.197690    0.087198   -1.536930
H       0.484361    2.175547   -0.196143
H      -1.031942    1.611953   -0.907689
H      -0.888452    1.798554    0.847823
H       0.773990   -0.070720    0.936547
H      -0.744168   -0.616205    0.245591
H      -0.997167   -1.082585   -2.280282
H       0.406569   -0.650150   -3.363280
H       0.411429   -2.685199   -0.994273
H       2.854422   -2.905185   -1.364996
H       1.932004   -2.361259   -3.947393
H       4.006111   -0.692918   -2.424422
H       2.442634    1.138525   -1.427515
