16

C      -0.086386    1.512260   -0.016169
C       0.122362    0.026285   -0.018796
O      -0.726028   -0.759304    0.846345
C       0.702429   -0.789484    1.065026
C       1.366538   -1.970865    0.426898
C       1.196246   -1.938150   -0.905045
C       0.464911   -0.721086   -1.283944
N       0.146215   -0.256838   -2.431674
O       0.549655   -1.101852   -3.467270
H       0.797251    2.028172   -0.403208
H      -0.933590    1.777378   -0.655171
H      -0.289895    1.861010    0.998864
H       1.037776   -0.377688    2.012158
H       1.872578   -2.748666    0.984850
H       1.513207   -2.682994   -1.620528
H       0.244788   -0.630329   -4.250009
