16

C       0.000727    1.464011    0.018538
N       0.013771    0.018003   -0.063669
C       0.519339   -0.618926    0.902310
N       0.573274   -2.011010    0.905824
C       0.109798   -2.884428   -0.089836
N       0.272420   -4.126737    0.142918
C       0.927321   -4.220091    1.449658
C       1.120978   -2.786784    1.945765
O       1.610275   -2.359461    2.959733
H       0.541957    1.881966   -0.837635
H      -1.031952    1.823193   -0.053546
H       0.446756    1.860329    0.943537
H       0.956115   -0.189238    1.810477
H      -0.347233   -2.459733   -0.974585
H       0.316394   -4.794071    2.154706
H       1.890751   -4.735089    1.369892
