12

N       0.233145    1.573465   -1.114829
C      -0.047983    0.464225   -0.583959
O      -1.351976    0.002791   -0.751162
C      -2.077353   -0.286733    0.368085
O      -1.711860   -0.074006    1.490736
C      -3.346578   -0.864028    0.000546
C      -4.418466   -1.345931   -0.247378
C       0.842243   -0.433709    0.083219
C       1.630170   -1.175122    0.607677
H       1.225794    1.778438   -1.002298
H      -5.366803   -1.772678   -0.468478
H       2.319638   -1.829146    1.083852
