14

O       0.527087    0.025898    0.128604
C       0.616911    1.190585    0.363888
O       0.612759    2.117884   -0.625532
C       0.816130    3.483370   -0.356731
C       1.335108    3.978440    1.030413
N       2.665583    3.323479    0.656152
C       2.251324    4.016795   -0.643065
C       1.886092    5.207746    0.265118
O       2.113605    6.364989    0.422531
H       0.684527    1.627752    1.371483
H      -0.008866    4.044786   -0.796730
H       0.895076    3.894044    2.020959
H       3.455186    3.799208    1.099723
H       2.832886    3.937832   -1.557703
