22

C      -0.194393    1.497651   -0.068945
C       0.050232    0.005184    0.036677
C      -1.157719   -0.854869   -0.277137
C       1.417701   -0.526578   -0.248486
N       0.898411   -0.523296    1.118717
C       1.513018    0.340993    2.090465
C       0.744697    0.584984    3.376755
C       1.908550   -0.377102    3.360859
O       1.679389   -1.745981    3.432556
H       0.706479    2.081573    0.130875
H      -0.541304    1.750996   -1.076397
H      -0.968915    1.816027    0.637486
H      -1.487239   -0.701843   -1.310957
H      -0.925147   -1.913589   -0.139535
H      -1.996193   -0.603302    0.382193
H       1.551186   -1.503295   -0.707161
H       2.198305    0.194282   -0.487481
H       2.155717    1.139923    1.722234
H       0.854871    1.549630    3.860654
H      -0.243013    0.142433    3.447739
H       2.828691   -0.086595    3.858736
H       1.222811   -1.962966    2.603102
