19

C       0.069321    1.471134   -0.343983
C      -0.090835    0.032773    0.093204
C      -1.307399   -0.660816   -0.489531
O       1.103997   -0.785462    0.076673
C       0.478235   -0.543091    1.331280
C       1.329731    0.060238    2.451117
N       2.294597   -0.906924    2.997119
C       2.078346    1.275796    2.098104
N       2.680908    2.231210    1.858045
H       1.013315    1.905215   -0.023117
H       0.021749    1.522491   -1.437076
H      -0.750979    2.080899    0.049917
H      -1.262805   -0.640412   -1.583430
H      -1.360537   -1.703994   -0.168802
H      -2.227150   -0.151477   -0.182940
H      -0.054667   -1.412216    1.733100
H       0.648810    0.336662    3.267266
H       1.788386   -1.705605    3.369461
H       2.872791   -1.255395    2.236166
