21

C       0.609749    1.104524   -0.509066
C       0.189674   -0.316233   -0.127831
C      -1.311712   -0.451967    0.125992
O      -2.035953   -0.201358   -1.075639
C      -2.966834    0.858126   -1.007764
C      -1.661892   -1.884738    0.609100
O      -0.944538   -2.212264    1.766619
C      -3.147419   -2.036490    0.857431
O      -3.571070   -2.381817    1.936586
H       1.686066    1.155113   -0.698285
H       0.094943    1.435016   -1.416032
H       0.381025    1.817300    0.291432
H       0.459371   -1.013439   -0.931217
H       0.713692   -0.647291    0.773728
H      -1.615294    0.256512    0.910843
H      -3.746572    0.679004   -0.250937
H      -2.482248    1.817912   -0.781176
H      -3.444665    0.927850   -1.988434
H      -1.408080   -2.567830   -0.221715
H      -1.616179   -2.443924    2.428975
H      -3.818212   -1.824295    0.005363
