18

C       0.299579    1.321589   -0.257724
N       0.108159   -0.101392   -0.087992
C       0.483244   -0.692295    0.974439
N       0.382050   -2.056018    1.145076
C      -0.330152   -2.856093    0.193344
C       0.421191   -3.424542   -0.980623
C      -0.009291   -4.323849    0.152271
C       1.086261   -0.021575    2.124467
N       1.549169    0.526850    3.031211
H       0.753423    1.831569    0.603491
H       0.931317    1.498291   -1.136307
H      -0.668805    1.789979   -0.468086
H       0.398364   -2.382073    2.099602
H      -1.358357   -2.550277    0.013382
H      -0.100931   -3.489461   -1.927872
H       1.474193   -3.181306   -1.053425
H       0.762306   -4.686281    0.823058
H      -0.827902   -5.015874   -0.007487
