15

O       0.017527   -0.004034   -0.192045
C      -0.026043    1.187247   -0.017157
C      -1.288873    2.048337    0.136117
C      -0.733907    3.399057    0.591957
C       0.058515    3.205987    1.907662
N       1.357158    3.065200    1.162571
C       0.667228    3.524654   -0.075913
C       1.151778    2.122803    0.001442
H      -1.774273    2.119942   -0.845324
H      -2.000231    1.593978    0.831575
H      -1.425081    4.237799    0.529554
H       0.126194    4.111411    2.514753
H      -0.209463    2.356461    2.545874
H       1.059125    4.295404   -0.728945
H       2.088469    1.798698   -0.434897
