16

C      -0.162455    1.477788   -0.020438
C      -0.064497    0.027832   -0.015994
C       0.013088   -1.177171   -0.012290
C       0.128300   -2.574181   -0.008217
C       1.191407   -3.435944   -0.010371
C       2.647173   -3.123951   -0.017896
N       0.710861   -4.739269   -0.003985
C      -0.576153   -4.610098    0.001630
O      -1.023434   -3.341338   -0.000317
H       0.832821    1.935306   -0.022496
H      -0.696328    1.839168   -0.906539
H      -0.695113    1.844556    0.864174
H       3.139988   -3.545244    0.864798
H       3.133539   -3.558818   -0.897517
H       2.810121   -2.043941   -0.026602
H      -1.324485   -5.387598    0.007576
