21

C       0.059453    1.493300    0.231168
C       0.050772    0.048798    0.047068
C       0.053476   -1.145857   -0.103651
C       0.018598   -2.596279   -0.291740
C      -1.372923   -3.173248   -0.160589
C      -1.970741   -3.570428    1.158654
C      -1.822475   -4.617855    0.085017
C      -2.946288   -4.465335   -0.946162
C      -2.493974   -2.987539   -1.194182
H       0.595731    1.776893    1.143758
H       0.546675    2.000927   -0.608931
H      -0.958537    1.891055    0.310723
H       0.427577   -2.844290   -1.281605
H       0.681342   -3.080737    0.438091
H      -1.265537   -3.644865    1.981052
H      -2.958100   -3.218367    1.451885
H      -1.219333   -5.505616    0.238374
H      -2.811240   -5.092504   -1.830174
H      -3.963377   -4.613257   -0.567713
H      -3.220497   -2.198245   -0.977037
H      -2.113651   -2.837886   -2.208062
