17

C      -0.065045    1.580560    0.101039
C       0.046243    0.065482    0.011659
C       1.111886   -0.559220   -0.964768
C       1.728089   -1.303160    0.232765
N       2.142017   -0.231865    1.190946
C       0.736175   -0.674222    1.169576
C       2.321484   -2.592924    0.250013
C       2.825613   -3.686457    0.240270
H       0.906021    2.019268    0.344789
H      -0.407008    2.004558   -0.849183
H      -0.780907    1.879051    0.875061
H      -0.932247   -0.384082   -0.182239
H       0.670264   -1.228502   -1.704557
H       1.791612    0.142024   -1.454298
H       2.595741   -0.699465    1.975737
H       0.276113   -1.098101    2.054660
H       3.270034   -4.650602    0.234905
