23

C      -0.456873    1.545148    0.354617
C      -0.108689    0.069397    0.193365
C       0.321317   -0.449221   -1.186198
C       1.664415    0.110351   -1.569119
C       1.607146   -1.044299   -0.605469
C       2.273596   -2.366400   -0.861226
C       1.222807   -0.538815    0.799824
C       2.192724    0.376921    1.537369
O       0.945322   -1.688472    1.594203
H       0.318799    2.202209   -0.050703
H      -1.389509    1.778155   -0.171213
H      -0.599475    1.810934    1.408349
H      -0.925403   -0.547040    0.581274
H      -0.346292   -0.876730   -1.926124
H       2.008168   -0.153776   -2.564840
H       1.970057    1.106599   -1.259990
H       2.215200   -2.629722   -1.922614
H       3.335365   -2.340373   -0.587016
H       1.798055   -3.160803   -0.280543
H       2.473258    1.250477    0.944035
H       1.745073    0.745572    2.469413
H       3.102769   -0.173596    1.794997
H       0.611959   -1.384170    2.445138
