17

C      -0.141385    1.657892   -0.839614
N      -0.327900    0.238875   -1.063277
C       0.159561   -0.553932   -0.206015
N       0.019541   -1.926182   -0.354769
C       0.525616   -2.850268    0.541607
O       1.140172   -2.537439    1.542476
C       0.248855   -4.221690    0.165796
C       0.039310   -5.375974   -0.111684
C      -0.205986   -6.771363   -0.432293
H       0.419993    1.894457    0.077754
H       0.387770    2.097081   -1.693315
H      -1.118442    2.152022   -0.785753
H       0.712840   -0.275675    0.695597
H      -0.483116   -2.248691   -1.169283
H      -0.859465   -7.231447    0.316774
H      -0.684360   -6.879320   -1.411087
H       0.731729   -7.337024   -0.447635
