18

C       1.165038    0.778906   -0.243332
C      -0.146887    0.005306   -0.328388
O      -0.227638   -0.885108   -1.443389
C       0.537353   -2.029717   -1.343183
C       0.839815   -2.811160   -2.570973
N       1.077989   -1.942644   -3.727477
C       2.105179   -1.240328   -3.061524
O       2.759302   -0.291753   -3.386817
C       1.996160   -2.126705   -1.832104
H       2.009363    0.125344   -0.010775
H       1.378269    1.282785   -1.189486
H       1.093620    1.532446    0.547972
H      -0.328079   -0.555858    0.601468
H      -0.986188    0.693189   -0.466221
H       0.357484   -2.619795   -0.440165
H       0.648333   -3.867750   -2.706616
H       0.321581   -1.443458   -4.183219
H       2.793938   -2.539887   -1.230856
