21

C       0.124415    1.590319   -0.031672
C       0.126578    0.060093   -0.025717
C       0.825352   -0.594633   -1.217623
C       2.334605   -0.653128   -1.213806
C       1.531938   -1.840838   -0.738752
C       1.259856   -1.986355    0.754875
O       2.311136   -2.502584    1.537505
C       0.793912   -0.576903    1.220067
O       1.970196    0.116269    1.653455
H       1.144884    1.982852   -0.024624
H      -0.374930    1.972481   -0.927514
H      -0.407632    1.996616    0.837270
H      -0.917052   -0.285387   -0.028082
H       0.313490   -0.571475   -2.174293
H       2.820009   -0.756662   -2.178523
H       2.886929   -0.061961   -0.494309
H       1.549593   -2.747460   -1.333084
H       0.419044   -2.680956    0.876500
H       2.857824   -1.742397    1.774647
H       0.092671   -0.651530    2.059895
H       1.707631    0.853177    2.210625
