20

C      -0.055378    1.470719   -0.109722
C      -0.025118   -0.039241   -0.134873
C       0.787253   -0.800183   -1.120594
N       1.236384   -0.666066    0.284286
C       1.130201   -2.008919    0.911216
C       0.718082   -3.022312   -0.156668
C      -0.667356   -2.952978   -0.774558
C       0.496255   -2.257840   -1.435350
O       1.001935   -2.748721   -2.639295
H       0.899268    1.878516   -0.452631
H      -0.851870    1.857482   -0.754973
H      -0.232918    1.838614    0.906739
H      -0.947194   -0.507615    0.205230
H       1.368873   -0.279850   -1.878215
H       2.118818   -2.272673    1.300673
H       0.443082   -1.973272    1.764863
H       1.222366   -3.981889   -0.183421
H      -1.002523   -3.861964   -1.264408
H      -1.459123   -2.388430   -0.295510
H       0.361398   -2.555902   -3.332395
