18

C      -0.037392    1.632241   -0.257480
C      -0.058199    0.146027    0.134763
C      -1.436313   -0.434021    0.161870
C      -2.120339   -0.954550    1.227791
N      -1.851797   -1.158193    2.597774
N      -3.362491   -1.345998    0.709412
C      -3.341315   -1.039503   -0.605623
O      -4.410109   -1.303885   -1.379454
N      -2.219134   -0.493601   -0.988670
H       0.988200    2.011286   -0.311643
H      -0.510091    1.772543   -1.233202
H      -0.587434    2.238317    0.469985
H       0.558425   -0.417822   -0.577208
H       0.401655    0.011974    1.121132
H      -1.062570   -1.776123    2.750298
H      -1.667325   -0.291494    3.090213
H      -4.109235   -1.772860    1.230592
H      -4.173042   -1.006615   -2.267095
