19

C       0.256537    1.398243    0.117629
O       0.306484   -0.007908    0.128546
C       0.519871   -0.555022   -1.148266
C       0.523951   -2.065725   -1.046375
C       1.357700   -2.830367   -1.998198
O       1.787602   -2.642288   -0.657505
C      -0.654418   -2.674885   -0.479728
C      -1.650150   -3.170975   -0.019640
C      -2.845817   -3.772361    0.550303
H       1.200884    1.839010   -0.239721
H      -0.559790    1.773417   -0.520477
H       0.081393    1.725419    1.145028
H      -0.275240   -0.239617   -1.846209
H       1.486548   -0.226813   -1.563355
H       1.053811   -3.841357   -2.262585
H       1.928568   -2.296801   -2.758448
H      -2.586100   -4.590261    1.231250
H      -3.425633   -3.037720    1.119479
H      -3.497937   -4.182941   -0.228545
