17

C      -0.243412    1.352760    0.131101
O       0.190681    0.014596   -0.088185
C       0.771089   -0.560583    1.008122
C       2.250045   -0.469017    1.401077
O       2.237428   -1.867722    1.810138
C       0.887404   -2.000858    1.390602
C      -0.039721   -1.091041    2.199333
C       0.197715   -0.727655    3.563273
C       0.408177   -0.406523    4.703569
H       0.599805    2.017618    0.361118
H      -0.717437    1.684725   -0.794301
H      -0.968453    1.404702    0.953442
H       2.904281   -0.327322    0.534787
H       2.529077    0.199380    2.220697
H       0.569614   -2.931034    0.934819
H      -1.080015   -1.237178    1.914342
H       0.592652   -0.137759    5.713963
