17

C      -0.185393    1.448325   -0.352328
C      -0.045133    0.003385   -0.245126
C       0.077199   -1.191269   -0.165729
C       0.195301   -2.641178   -0.049932
C      -1.068339   -3.267855    0.521015
O      -2.113204   -3.603236   -0.372269
C      -1.465921   -4.683715    0.313594
C      -0.664079   -5.614314   -0.536530
O      -0.383597   -6.736121   -0.199172
H       0.593405    1.968259    0.216164
H      -0.112474    1.777592   -1.394549
H      -1.155556    1.781068    0.032499
H       0.415564   -3.082935   -1.027473
H       1.036019   -2.898328    0.608784
H      -1.407576   -2.812253    1.452505
H      -2.048204   -5.174119    1.092603
H      -0.356909   -5.194268   -1.518440
