22

C       1.023888   -0.708129    0.701344
C       0.016759   -0.065875   -0.254078
O       0.463473   -0.155978   -1.607788
C      -1.425608   -0.569644   -0.163384
C      -1.698835   -2.029592   -0.087082
N      -1.954080   -1.163486    1.078746
C      -2.412487    0.413584   -0.802974
C      -3.766826   -0.176162   -1.190440
O      -2.572799    1.512620    0.091517
H       2.014818   -0.300629    0.486492
H       0.795495   -0.487800    1.749482
H       1.081762   -1.796328    0.579575
H      -0.012954    1.009772   -0.049389
H       0.411954   -1.083206   -1.866666
H      -2.585557   -2.448704   -0.550841
H      -0.856764   -2.716007   -0.038210
H      -1.213915   -1.285192    1.763821
H      -1.931348    0.832552   -1.692457
H      -4.240065   -0.665108   -0.332097
H      -4.421432    0.630592   -1.529491
H      -3.673238   -0.905996   -2.001004
H      -2.869455    1.123803    0.924933
