15

N       0.052420    1.145638    0.535475
C       0.001886   -0.016898    0.081374
O       1.013688   -0.837700   -0.415911
C       0.064794   -1.905691   -0.712782
C      -0.067402   -2.917439    0.454102
C      -1.204379   -2.046762    1.071888
C      -1.091916   -1.038386   -0.113259
C       0.154419   -2.371366   -2.079163
N       0.196773   -2.772018   -3.162435
H       1.001028    1.523133    0.524115
H      -0.398868   -3.904249    0.126936
H       0.852654   -3.018448    1.031254
H      -2.167416   -2.558002    1.092401
H      -1.012911   -1.616938    2.055604
H      -1.988827   -0.739528   -0.649414
