15

N       0.061247    1.283041    0.013709
C      -0.029279    0.021080   -0.065631
N      -1.243609   -0.645369   -0.014818
C      -1.509561   -2.102696   -0.049414
C      -3.034049   -1.757029   -0.004919
C      -2.600118   -0.279934    0.053488
O      -3.151887    0.774400    0.130793
C      -1.015370   -2.800890   -1.223847
C      -0.595814   -3.382186   -2.188194
H       1.037547    1.566687   -0.051982
H       0.802165   -0.684690   -0.186206
H      -1.161426   -2.602459    0.861422
H      -3.583675   -2.023035   -0.908117
H      -3.566946   -2.112874    0.877747
H      -0.230899   -3.894215   -3.044645
