17

C      -0.053030    1.549606    0.058795
C      -0.051554    0.044699    0.050919
C      -1.303968   -0.845071    0.234986
C      -0.277322   -1.985782    0.542952
C       0.734220   -0.866614    1.030171
O       1.907300   -0.900885    0.192088
C       0.955791   -0.722002   -0.906489
C       0.307285   -2.116426   -0.866325
O       0.257526   -2.995384   -1.676672
H       0.969877    1.937548    0.100265
H      -0.531044    1.949417   -0.842392
H      -0.599996    1.935864    0.925635
H      -1.864006   -0.541937    1.124196
H      -1.993437   -0.996390   -0.600581
H      -0.529098   -2.883571    1.099187
H       0.915943   -0.702644    2.091500
H       1.382686   -0.324827   -1.824875
