18

O       0.006946    0.076363    0.733381
C      -0.020425    1.127357    0.154098
C      -1.319906    1.899554   -0.067215
C      -1.645037    2.499140   -1.460159
N      -0.566476    3.212658   -2.145626
C       0.551156    2.285501   -2.519166
C       1.312637    2.665310   -1.235245
C       0.373420    3.891411   -1.192411
O       1.170973    1.701878   -0.189996
H      -2.119976    1.218694    0.230160
H      -1.310443    2.705731    0.676824
H      -1.986448    1.705352   -2.132996
H      -2.491523    3.182797   -1.329136
H       0.278117    1.231460   -2.629828
H       1.046677    2.625853   -3.433833
H       2.387382    2.844794   -1.292459
H       0.829922    4.764755   -1.668747
H      -0.037818    4.194787   -0.227964
