10

N       0.085650    1.378430   -0.708767
C       0.001800    0.193035   -0.307096
O      -1.202155   -0.488263   -0.302414
C      -2.304812    0.088905    0.268495
O      -2.330524    1.058993    0.954424
C      -3.475902   -0.719024   -0.066755
N      -4.434724   -1.317983   -0.301220
C       1.083287   -0.659073    0.131088
N       1.984605   -1.298240    0.470433
H       1.043858    1.725249   -0.684056
