22

C      -0.302786    1.567250   -0.151406
C      -0.143756    0.056472   -0.011321
C       0.883919   -0.577657   -0.997886
C       1.942014   -0.595552    0.139540
C       0.775619   -0.463897    1.151107
N       0.947623    0.252019    2.399354
C       1.826105    1.408971    2.506442
C       0.320799   -0.193949    3.530524
O       0.385192    0.316268    4.629389
H       0.658956    2.076107   -0.273946
H      -0.907241    1.801738   -1.034100
H      -0.805445    1.998237    0.720724
H      -1.136242   -0.405305   -0.013591
H       0.595437   -1.584277   -1.310807
H       1.127466    0.006711   -1.888035
H       2.592783   -1.467836    0.233871
H       2.566746    0.300123    0.111325
H       0.427077   -1.467401    1.415371
H       1.518777    2.214465    1.834814
H       1.767154    1.759838    3.536778
H       2.863217    1.139502    2.279840
H      -0.276613   -1.105302    3.331548
