21

C      -0.601747    0.868454   -1.620188
C       0.376020   -0.189981   -1.140617
C       1.897145    0.001936   -1.381550
C       2.168655   -0.597663    0.024379
C       3.278287   -0.030275    0.892842
C       0.682586   -0.277660    0.402565
O       0.652324    0.999320    1.031044
C      -0.062955   -1.261600    1.174722
C      -0.705612   -2.066475    1.797182
H      -0.334743    1.851708   -1.221656
H      -0.594477    0.933995   -2.713408
H      -1.627923    0.637770   -1.310904
H       0.066285   -1.181707   -1.485241
H       2.339188   -0.506582   -2.241288
H       2.164927    1.062217   -1.421280
H       2.265145   -1.684881   -0.054108
H       3.161293    1.048026    1.022593
H       3.280301   -0.491043    1.886254
H       4.254282   -0.219906    0.432740
H      -0.263917    1.192508    1.256436
H      -1.261519   -2.780932    2.352582
