20

C      -0.125319    1.506607   -0.067780
C      -0.034090    0.009709    0.085025
N       1.258092   -0.617047   -0.176736
C       0.741362   -0.646231    1.196824
C       1.423517    0.050627    2.359502
C       0.662959   -0.495470    3.592899
C       0.323719   -1.953896    3.229919
C       0.189577   -1.948751    1.709546
O      -0.242414   -2.834631    1.008152
H       0.812076    1.989119    0.218178
H      -0.326997    1.764771   -1.112918
H      -0.936965    1.917966    0.541876
H      -0.913574   -0.548554   -0.233303
H       1.106915   -1.543998   -0.578336
H       2.479242   -0.243835    2.395208
H       1.392127    1.140277    2.297100
H       1.243202   -0.409332    4.514085
H      -0.262088    0.073877    3.735987
H       1.154343   -2.627951    3.479156
H      -0.569929   -2.358865    3.710316
