15

C      -0.287935    1.589557    0.135284
C       0.011140    0.094994   -0.022179
C       0.882741   -0.360787   -1.253173
C       1.897374   -1.075794   -0.312978
C       1.192900   -0.429773    0.880129
O       1.456233   -0.249365    2.026932
C      -1.185033   -0.718502    0.144743
N      -2.125196   -1.379780    0.276108
H       0.631726    2.169135    0.015547
H      -1.011804    1.922247   -0.613428
H      -0.694352    1.791541    1.129167
H       0.370645   -0.996449   -1.973947
H       1.309862    0.500394   -1.769923
H       1.781349   -2.164357   -0.297663
H       2.958933   -0.842289   -0.420847
