18

O      -0.331718    0.309544    0.580031
C       0.099474    1.015299   -0.293523
C       1.492729    1.623519   -0.287398
N       1.511305    2.811519   -1.130034
C       1.326562    4.156410   -0.596039
C       1.581594    4.405113    0.878819
O       2.840199    3.803856    1.173439
C       3.621495    3.742515   -0.016771
C       2.637632    3.730292   -1.172473
H      -0.496251    1.269288   -1.198889
H       1.825129    1.760778    0.748136
H       2.158481    0.878540   -0.747452
H       0.617725    4.792450   -1.118283
H       1.596729    5.490674    1.065846
H       0.840503    3.955092    1.548928
H       4.282230    4.618967   -0.113687
H       4.250679    2.848100    0.051349
H       2.987061    4.025529   -2.158110
