19

C       0.106487    1.598892   -0.421638
C       0.037404    0.103420   -0.104241
C       1.096322   -0.729073   -0.872676
O       1.921461   -0.845952    0.303712
C       0.881884   -0.291850    1.134862
N      -1.272700   -0.539913   -0.104562
C      -2.457257    0.161768    0.374394
C      -2.296352   -0.162135   -1.071196
H       1.149000    1.927870   -0.384082
H      -0.271558    1.825412   -1.423750
H      -0.451784    2.199480    0.303669
H       0.714767   -1.700274   -1.209914
H       1.620118   -0.227291   -1.694988
H       1.250535    0.526486    1.764741
H       0.397901   -1.054033    1.757193
H      -3.121241   -0.424706    1.003543
H      -2.380067    1.209683    0.654530
H      -2.112618    0.672328   -1.743880
H      -2.840647   -0.989551   -1.518161
