16

C      -0.033951    1.469369    0.030590
C       1.463199    1.936290    0.098542
C       2.175711    0.801248   -0.648465
C       3.384651   -0.085913   -0.227936
O       3.127969   -0.673599    1.045336
C       2.502315   -1.276068   -0.115585
C       1.295444   -0.395966   -0.343531
C       0.067634   -0.059014    0.030861
H      -0.620864    1.835288    0.880084
H      -0.529285    1.849478   -0.874643
H       1.617724    2.933426   -0.322755
H       1.783293    1.946232    1.145420
H       2.242190    0.983290   -1.730297
H       4.420089   -0.015370   -0.541722
H       2.690095   -2.328774   -0.283660
H      -0.733437   -0.706679    0.366906
