22

C      -0.010510    1.520302   -0.055208
C      -0.017698    0.011868   -0.106029
C       0.727104   -0.747987   -1.147622
N       1.249334   -0.654597    0.234219
C       1.087366   -1.994597    0.835550
C       0.137700   -2.822843   -0.066270
C       0.304082   -2.163836   -1.434829
C      -0.540342   -2.529232   -2.625495
C       0.923177   -2.902808   -2.596683
H       0.936188    1.911962   -0.437238
H      -0.827044    1.936386   -0.655672
H      -0.130192    1.877694    0.973429
H      -0.933663   -0.449931    0.262628
H       1.277649   -0.209741   -1.916841
H       2.080979   -2.454300    0.867885
H       0.729763   -1.905628    1.866280
H       0.395768   -3.885159   -0.075026
H      -0.899758   -2.748962    0.277145
H      -1.273431   -3.320974   -2.508158
H      -0.851182   -1.734650   -3.296051
H       1.601925   -2.359722   -3.246927
H       1.181778   -3.947408   -2.456462
