19

C      -0.168373    1.563928   -0.511752
C      -0.170402    0.191782    0.166296
C      -1.442856   -0.618067   -0.103726
O      -1.650265   -0.793926   -1.516125
C      -1.439704   -1.963080    0.639715
C      -2.757995   -2.747804    0.647366
N      -3.436679   -2.750734   -0.532724
O      -3.135771   -3.346849    1.636657
H       0.771143    2.092454   -0.326493
H      -0.301231    1.465972   -1.592300
H      -0.984385    2.189184   -0.133544
H       0.697047   -0.396838   -0.167982
H      -0.056607    0.306687    1.250737
H      -2.312655   -0.031386    0.216666
H      -0.877666   -1.252903   -1.867710
H      -0.659179   -2.606509    0.208270
H      -1.176220   -1.812248    1.689218
H      -3.137789   -2.155004   -1.291199
H      -4.334263   -3.206008   -0.557027
