18

O      -0.084524    1.436319    0.011974
C      -0.012285    0.055442    0.020283
C      -1.245107   -0.896810    0.117081
C      -0.456160   -1.851484   -0.693261
C       0.548880   -0.798797   -1.171842
C       2.015818   -1.138834   -0.882076
C       2.071493   -1.207625    0.678632
C       0.661527   -0.811897    1.114083
N      -0.369344   -1.880744    0.815745
H       0.748441    1.792244   -0.316317
H      -2.300717   -0.769736    0.311946
H      -0.757648   -2.772248   -1.177409
H       0.318806   -0.399375   -2.161352
H       2.316189   -2.079425   -1.353017
H       2.686185   -0.363816   -1.271508
H       2.316568   -2.209271    1.043966
H       2.820051   -0.521945    1.088713
H       0.544984   -0.475321    2.145265
