21

C      -0.020638    1.474944    0.014627
C       0.016173   -0.027403   -0.040770
C       0.234524   -0.790259   -1.345356
C       0.169649   -2.214701   -0.759649
O       0.339724   -3.214684   -1.726801
C       1.208476   -2.127177    0.391610
C       0.632463   -0.885502    1.055128
C      -0.873510   -0.913724    0.819485
C      -1.173520   -2.171900    0.018984
H       0.921615    1.911576   -0.337137
H      -0.825925    1.878815   -0.610375
H      -0.187231    1.828729    1.037676
H      -0.553658   -0.615626   -2.085673
H       1.204121   -0.582631   -1.810727
H       0.286388   -4.068916   -1.285751
H       1.190657   -3.013425    1.038023
H       2.225718   -1.991871    0.010396
H       1.057755   -0.442050    1.946898
H      -1.566743   -0.491230    1.536216
H      -2.030058   -2.071793   -0.655358
H      -1.321433   -3.060576    0.645068
