16

C      -0.149501    1.534468    0.016799
C      -0.030807    0.046876    0.007544
C       0.728722   -0.833888   -1.063957
C      -0.408133   -1.818665   -0.757763
C      -0.419111   -1.828908    0.741710
C       0.713021   -0.848505    1.077950
C       1.800506   -1.104734    0.013114
O       2.985014   -1.252332    0.020790
N      -1.280563   -0.860951   -0.007798
H       0.841867    2.000617    0.026352
H      -0.687159    1.884272   -0.870470
H      -0.698664    1.872426    0.901608
H       0.952240   -0.537815   -2.084974
H      -0.812429   -2.602787   -1.384820
H      -0.832460   -2.621485    1.352012
H       0.921517   -0.566409    2.106079
