23

C       0.016139    1.597367   -0.015003
C       0.058235    0.065829    0.045672
C       0.757241   -0.583197   -1.176168
C       1.512390   -1.825923   -0.640576
C       2.865746   -2.040881   -1.331283
O       3.539584   -3.211990   -0.897139
C       1.598479   -1.535145    0.840027
C       0.827570   -0.515277    1.224052
C       0.636410   -0.011715    2.621072
H       1.028896    2.015637   -0.041797
H      -0.508782    1.934906   -0.914809
H      -0.503005    2.024696    0.848949
H      -0.982176   -0.291354    0.110865
H       0.061176   -0.824716   -1.983956
H       1.486321    0.129304   -1.584971
H       0.927821   -2.743650   -0.804118
H       2.712110   -2.170339   -2.408518
H       3.491862   -1.143979   -1.194776
H       3.800139   -3.077380    0.018964
H       2.186936   -2.139513    1.525426
H       1.223255   -0.589683    3.340130
H       0.927687    1.041498    2.714909
H      -0.418530   -0.068705    2.920413
