16

C       0.089958    1.480865   -0.097287
C       0.015447   -0.029404   -0.017976
O       0.711929   -0.562644   -1.177811
C       0.733046   -1.879360   -1.298885
O       0.265037   -2.682258   -0.530284
C       1.453853   -2.336217   -2.584424
O       1.625235   -3.720180   -2.566562
C       0.678203   -1.883463   -3.761359
N       0.074039   -1.535923   -4.682314
H       1.128160    1.823172   -0.084066
H      -0.385671    1.847502   -1.010591
H      -0.428003    1.916899    0.761714
H       0.496686   -0.425144    0.880870
H      -1.013953   -0.397664   -0.039639
H       2.431863   -1.838833   -2.622845
H       1.024696   -4.049262   -1.877946
