17

C       0.007767    1.513211    0.079074
C      -0.062596    0.023856   -0.001754
C       0.025128   -0.769311   -1.075276
C      -0.003652   -2.207510   -0.651434
C      -0.515976   -2.271481    0.745336
C       0.964276   -2.657194    0.470798
C       1.342490   -1.514340    1.348985
O       2.273933   -1.301225    2.074073
C      -0.075223   -0.858167    1.237956
H       0.884080    1.836806    0.654360
H       0.068169    1.965092   -0.914464
H      -0.871660    1.924126    0.590758
H       0.142220   -0.452073   -2.103561
H      -0.245807   -2.996843   -1.354671
H      -1.293641   -2.904732    1.150083
H       1.437014   -3.630385    0.445815
H      -0.475941   -0.435486    2.158264
