15

C       0.023481    1.443673    0.047793
C       0.010264   -0.065113    0.035864
O      -0.068821   -0.761689    1.015645
C       0.070557   -0.715667   -1.367862
O       0.378789   -2.086411   -1.328065
C      -0.842523   -2.785872   -1.359098
O      -1.795454   -1.933136   -2.004197
C      -1.326479   -0.664992   -2.003093
O      -1.930145    0.283001   -2.408870
H       1.010974    1.805050   -0.263424
H      -0.702435    1.827350   -0.677380
H      -0.198576    1.812565    1.049444
H       0.788577   -0.189845   -2.004304
H      -0.723894   -3.694373   -1.954081
H      -1.205231   -3.012496   -0.349755
