18

C       0.059947    1.548200   -0.138566
C       0.036359    0.036701   -0.068889
C       1.374473   -0.738413   -0.200760
O       2.557067   -0.027903   -0.340845
C       0.673851   -0.678081    1.116887
O       1.266523    0.157565    2.081320
C      -1.123758   -0.724787   -0.637931
N      -2.073908    0.006008   -1.291180
O      -1.212527   -1.939057   -0.522247
H       0.945076    1.951117    0.353047
H       0.084884    1.895978   -1.177848
H      -0.814649    1.983344    0.356753
H       1.340379   -1.654721   -0.779374
H       2.736501    0.367602    0.524302
H       0.148078   -1.551966    1.489445
H       1.738282   -0.407485    2.702435
H      -1.954782    0.980534   -1.500715
H      -2.801247   -0.504183   -1.764804
