17

N      -0.092921    1.456106    0.038216
C      -0.056782    0.028313    0.013844
C       0.354924   -0.819936    1.259436
C      -0.372158   -1.917592    0.451644
C      -1.363114   -0.828937   -0.011455
O       0.488342   -2.104317   -0.701086
C       0.772687   -0.748263   -1.068965
C       0.347413   -0.448113   -2.440199
N       0.003245   -0.154483   -3.503959
H       0.839234    1.846342    0.146742
H      -0.471448    1.821354   -0.832041
H       1.417543   -0.968135    1.467636
H      -0.184296   -0.501787    2.152029
H      -0.657021   -2.890188    0.843839
H      -2.057741   -0.511882    0.766586
H      -1.873117   -0.980001   -0.965020
H       1.847807   -0.544824   -0.984739
