14

N      -0.003899    1.153450    0.542862
C      -0.064883    0.043066   -0.046204
O       1.030124   -0.465562   -0.730334
C       1.193578   -1.800171   -1.060700
O       2.194471   -2.124526   -1.621984
C       0.061445   -2.717078   -0.659348
C      -1.300410   -2.046563   -0.877911
C      -1.370303   -0.751591   -0.096717
O      -2.357572   -0.347251    0.455401
H       0.935167    1.551685    0.465829
H       0.167670   -3.641137   -1.228573
H       0.191518   -2.970221    0.401025
H      -1.432130   -1.811423   -1.942820
H      -2.132527   -2.684943   -0.576319
