11

N       0.040138    1.397018    0.156589
C      -0.024761    0.033983    0.031788
N      -1.164655   -0.576040   -0.003552
O      -1.126441   -1.963393   -0.020606
C       0.049337   -2.706626   -0.016643
O      -0.038552   -3.895190    0.001309
N       1.262569   -2.004550   -0.045111
C       1.204036   -0.743687   -0.014707
F       2.321093   -0.035405   -0.049700
H       0.860330    1.842702   -0.223364
H      -0.829339    1.886574    0.001037
