16

O      -1.007469    1.445749    0.071766
C       0.104062    0.996588    0.245693
C       1.343023    1.757664    0.003916
C       1.268624    3.297332   -0.048336
C       1.577301    2.608283   -1.303425
N       2.956666    2.518434   -1.710534
C       3.712116    1.905042   -0.605489
C       2.686420    1.189181    0.303886
O       2.936728    0.292345    1.071461
H       0.265255   -0.044562    0.591219
H       0.252896    3.655841    0.077745
H       2.040145    3.858501    0.467353
H       0.833131    2.567846   -2.089567
H       3.018967    1.924785   -2.529287
H       4.460101    1.198667   -0.969697
H       4.244601    2.661965   -0.015219
