17

O       0.096764    1.358704    0.127190
C       0.026551   -0.014190    0.096481
C       0.869534   -0.778972    1.092115
C       0.174322   -1.700649    2.027079
N       0.617351   -2.189549    0.706476
C      -0.383672   -1.985514   -0.357621
C      -1.331936   -0.765783   -0.100923
N      -1.303203   -0.352723   -1.552636
C       0.098525   -0.822788   -1.267841
H      -0.466394    1.664214   -0.599427
H       1.897140   -0.470019    1.256886
H       0.727255   -2.120043    2.862390
H      -0.887972   -1.566975    2.209667
H      -0.783904   -2.898769   -0.798200
H      -2.244074   -0.696183    0.492951
H      -1.798179   -1.040463   -2.126792
H       0.885977   -0.822952   -2.022728
