11

O      -0.055541    1.382791    0.009995
C       1.256967    1.783831   -0.000440
C       2.142836    0.741472   -0.014452
C       1.298548   -0.406688   -0.012479
C       0.003965    0.027809    0.002204
C      -0.782960   -1.139359    0.003502
N      -0.001240   -2.202545   -0.009500
O       1.339576   -1.742905   -0.019977
H       1.405662    2.851519    0.003802
H       3.217434    0.813943   -0.024352
H      -1.852864   -1.282138    0.012973
