17

N       0.303347   -1.083449    1.224082
C       0.089608   -0.073875    0.705324
C      -0.206896    1.208628    0.041680
N       1.014975    1.988022   -0.115082
C       1.527271    2.732296   -1.226441
C       0.566438    3.771383   -1.901211
C      -0.820194    3.839498   -1.324802
C       0.326826    4.419648   -0.545561
C       1.290230    3.374530    0.116058
H      -0.670193    0.983456   -0.925283
H      -0.947528    1.736055    0.652941
H       2.455209    2.414997   -1.690045
H       0.828882    4.257874   -2.831292
H      -1.443989    4.594265   -1.796190
H      -1.384128    2.973847   -1.010389
H       0.380759    5.470743   -0.294781
H       1.999780    3.648728    0.889380
