20

C       0.577980    1.320528   -1.065511
N       0.607639   -0.126073   -1.035877
C      -0.322939   -0.867382   -0.386961
O      -1.294766   -0.425998    0.203621
C      -0.075201   -2.370244   -0.455601
C      -1.015259   -3.172143   -1.381763
C       0.281539   -3.591398   -2.110932
C       0.440011   -3.217141   -3.569743
O       1.085930   -2.752805   -1.230008
H       1.460458    1.748996   -0.576935
H       0.532039    1.697876   -2.093206
H      -0.316260    1.640344   -0.528117
H       1.361171   -0.640730   -1.466793
H      -0.019559   -2.747851    0.571754
H      -1.577175   -3.973726   -0.902928
H      -1.696240   -2.556669   -1.972295
H       0.546726   -4.644856   -1.955531
H       0.163302   -2.170907   -3.733893
H       1.476623   -3.357443   -3.892394
H      -0.200485   -3.848198   -4.195473
