16

C       0.000274    1.437553   -0.075554
N       0.056436   -0.007048   -0.035801
C       0.569931   -0.631733    0.944483
C       1.142030    0.038591    2.103885
N       1.573138    0.654128    2.983040
N       0.608118   -2.025205    0.951346
C       0.041294   -2.726179   -0.198690
C       1.157292   -2.758587    1.995467
O       1.201101   -3.963685    2.022143
H       0.520908    1.782779   -0.975586
H      -1.046356    1.743708   -0.180964
H       0.430734    1.942481    0.798232
H       0.562230   -2.430011   -1.111826
H       0.162241   -3.791585   -0.013537
H      -1.014492   -2.469775   -0.310469
H       1.551425   -2.121401    2.802421
