21

C       0.086755    1.499255    0.008734
C       0.040987   -0.012741    0.001230
O       0.664512   -0.469540   -1.178397
C       0.663092   -1.889644   -1.257737
C       1.319877   -2.485753   -0.029837
C       1.791262   -3.912527   -0.044061
C       2.794747   -2.781767   -0.051905
C       0.697520   -1.902994    1.222168
O       0.696953   -0.482117    1.158107
H       1.127773    1.830924   -0.003887
H      -0.423434    1.892513   -0.873328
H      -0.398772    1.882926    0.908756
H      -1.003606   -0.386490    0.013722
H      -0.375317   -2.255534   -1.344862
H       1.195636   -2.156152   -2.175199
H       1.682234   -4.497032    0.864311
H       1.656971   -4.487235   -0.955297
H       3.341250   -2.589263   -0.969225
H       3.366532   -2.599063    0.851909
H      -0.338125   -2.269952    1.334143
H       1.255287   -2.179281    2.121572
