14

C      -0.020148    1.541657   -0.015637
C      -0.014870    0.040505   -0.048432
C      -1.125474   -0.726446    0.075743
O      -2.365610   -0.259380    0.242690
C      -1.031307   -2.188378    0.032562
O      -2.016465   -2.888016    0.142221
O       0.194514   -2.738723   -0.134326
N       1.363368   -1.974490   -0.265922
C       1.207430   -0.693501   -0.218811
H       0.602834    1.917862    0.803547
H       0.384350    1.955303   -0.946200
H      -1.032861    1.923377    0.119040
H      -2.930559   -1.053799    0.297131
H       2.144996   -0.152847   -0.325926
