23

C       0.051496    1.560761    0.018419
C       0.031175    0.034810   -0.033398
O      -1.325201   -0.434279   -0.131823
C       0.870299   -0.566108   -1.183158
C       1.109081   -2.006378   -0.719722
C       1.478748   -1.835597    0.770702
C       1.301055   -3.102904    1.603760
O       2.833336   -1.363582    0.879237
C       0.600717   -0.646816    1.236171
H       1.070699    1.937322    0.148566
H      -0.347128    1.988613   -0.910087
H      -0.563336    1.922747    0.848014
H      -1.700345   -0.069062   -0.940726
H       0.358621   -0.485264   -2.148233
H       1.826683   -0.038950   -1.260520
H       0.182411   -2.582380   -0.809472
H       1.891514   -2.532291   -1.277337
H       1.932877   -3.914144    1.220651
H       1.583295   -2.918166    2.644669
H       0.263065   -3.448570    1.579224
H       3.410768   -2.061366    0.550434
H       1.219471    0.035693    1.822339
H      -0.233119   -0.975719    1.859715
