17

C       0.269272    1.163679   -0.622031
C      -0.027294    0.024636    0.361103
O       0.187502    0.446672    1.688210
C      -1.434331   -0.485877    0.206494
N      -2.294981   -0.477634    1.140686
C      -3.525747   -1.060059    0.586712
C      -3.163363   -1.393846   -0.885733
O      -1.779238   -0.980045   -1.005367
H       1.295596    1.507040   -0.471771
H       0.152849    0.828090   -1.655926
H      -0.406000    2.004698   -0.439368
H       0.645780   -0.817057    0.128021
H      -0.647025    0.301692    2.157896
H      -3.812105   -1.947952    1.159651
H      -4.349080   -0.342639    0.663139
H      -3.220876   -2.459433   -1.122179
H      -3.749862   -0.834546   -1.619298
