13

C      -0.044695    1.561388   -0.160435
C       0.090222    0.048140    0.061396
O       0.773911   -0.222971    1.252765
C      -1.274140   -0.641293    0.091121
O      -1.620725   -1.271137    1.071876
C      -2.105315   -0.525058   -1.084985
C      -2.778148   -0.427179   -2.078228
H       0.952036    2.008524   -0.155591
H      -0.525600    1.781230   -1.117226
H      -0.628048    2.013149    0.647146
H       0.634010   -0.382710   -0.797872
H       0.179664   -0.785921    1.774700
H      -3.384219   -0.348739   -2.948465
