13

C      -0.121765    1.278145   -0.343336
C       1.283156    1.044227    0.104376
N       0.302495   -0.037128    0.126141
C      -0.165040   -0.547409    1.312227
C      -1.433868   -0.752667    1.792724
N      -1.294643   -1.391498    2.993034
N      -0.093133   -1.586695    3.284898
O       0.709225   -1.033788    2.182134
H      -0.766514    1.857868    0.312018
H      -0.356695    1.335088   -1.401170
H       2.076513    0.926666   -0.626128
H       1.586495    1.463254    1.059368
H      -2.391348   -0.506976    1.369297
