14

N      -0.026567    1.342685   -0.079946
C       0.005743   -0.013281   -0.033829
N      -1.147422   -0.638487   -0.015186
C      -1.196058   -1.986738   -0.008261
N      -2.238825   -2.700318   -0.000458
O       0.089115   -2.707600   -0.002757
C       1.225485   -2.025696   -0.017518
O       2.311145   -2.800540   -0.013770
C       1.279355   -0.674762   -0.034947
H       0.800319    1.878446    0.114445
H      -0.922812    1.781448    0.054906
H      -2.002747   -3.689645    0.007842
H       2.016300   -3.721439   -0.004718
H       2.224990   -0.155169   -0.056964
