21

C      -0.697918    1.149883    0.007809
C       0.138586   -0.114231   -0.110594
C       1.550791   -0.048975   -0.757172
C       2.040214   -1.081402    0.293513
C       0.794983   -0.743385    1.153259
C       1.031067    0.084787    2.473885
C       0.313953   -1.033752    3.240430
O      -0.997872   -1.157523    2.676882
C       0.097414   -1.804862    2.007970
H      -0.120106    1.973889    0.441344
H      -1.051942    1.478406   -0.975857
H      -1.570252    0.978629    0.646012
H      -0.452277   -0.894511   -0.607202
H       1.642963   -0.315067   -1.812917
H       2.012745    0.932047   -0.605446
H       1.994565   -2.105622   -0.091754
H       3.023478   -0.927012    0.745771
H       2.092819    0.168046    2.721997
H       0.559603    1.067272    2.548940
H       0.443129   -1.357704    4.266600
H       0.010815   -2.872790    1.835514
