19

O       0.101662    1.392921   -0.280506
C       0.048535    0.003812   -0.021446
C       0.596158   -0.441820    1.365530
C      -0.496023   -1.413722    1.889344
C      -1.436005   -0.766752    2.919158
C      -2.273604    0.294672    2.246606
C      -2.253444    0.454123    0.924494
C      -1.417277   -0.477259    0.073252
O      -1.266304   -1.738003    0.720585
H       1.022777    1.641947   -0.399425
H       0.547757   -0.557833   -0.823046
H       1.565915   -0.937885    1.279004
H       0.713803    0.433388    2.009558
H      -0.081150   -2.349623    2.270752
H      -2.080345   -1.530293    3.375878
H      -0.849630   -0.330453    3.738982
H      -2.890443    0.929701    2.877072
H      -2.813888    1.240737    0.431213
H      -1.873058   -0.654894   -0.903533
