18

C       0.102148    1.617369    0.104777
C       1.277050    0.720344   -0.128260
O       2.276245    0.669004    0.860742
C       2.700639   -0.596495    1.219343
N       2.036166   -1.551316    1.698208
C       0.656634   -1.520008    2.040867
C       0.041604   -0.307375    2.716869
C      -0.405335   -0.678840    1.329883
C      -0.078472    0.107798    0.100266
H       0.055900    2.109253    1.069697
H      -0.279936    2.200369   -0.725656
H       1.692772    0.659753   -1.131298
H       3.780152   -0.694092    1.105000
H       0.319221   -2.485226    2.404103
H      -0.641984   -0.485832    3.539323
H       0.680882    0.557569    2.841846
H      -1.379841   -1.156343    1.278412
H      -0.526324   -0.306797   -0.798606
