17

C      -0.068133    1.478182    0.003067
C      -0.007395   -0.015435    0.028440
N      -1.209031   -0.849026   -0.190305
C      -0.499867   -1.981022    0.543416
C       0.646464   -1.027840    0.975742
C       1.192708   -0.840217   -0.404957
O       1.002714   -1.992713   -1.212812
C       0.097238   -2.808099   -0.569871
N      -0.191920   -3.990417   -0.891582
H       0.921068    1.914210    0.172058
H      -0.433659    1.826424   -0.969207
H      -0.741026    1.863288    0.777977
H      -1.940199   -0.505688    0.430131
H      -1.093729   -2.532656    1.265170
H       1.188252   -0.972652    1.912019
H       2.138157   -0.349084   -0.594217
H       0.341782   -4.281722   -1.712953
