19

C       0.002144    1.456487    0.004679
C      -0.012762   -0.057643   -0.030983
C       0.371313   -0.707074   -1.368038
O      -0.207486   -2.022045   -1.346183
C      -0.832564   -2.175872   -0.087384
C       0.091398   -2.191886    1.137196
C      -0.687695   -1.088108    1.820865
C       0.637216   -0.760416    1.181055
C      -1.321136   -0.793428    0.418257
H       1.009463    1.848181   -0.180271
H      -0.663859    1.877510   -0.756838
H      -0.320864    1.826651    0.983222
H      -0.032433   -0.157545   -2.230136
H       1.460792   -0.778752   -1.488419
H      -1.558942   -2.987305   -0.142836
H       0.624869   -3.022710    1.579938
H      -1.047927   -0.994961    2.833297
H       1.581960   -0.526656    1.656491
H      -2.310298   -0.400033    0.194286
