14

C      -0.082551    1.462395   -0.032903
C       1.292316    0.835939   -0.005428
C       0.065216   -0.033465    0.020947
C      -0.345761   -0.882302    1.232120
O      -0.881353   -2.084304    0.627803
C      -0.767788   -1.893796   -0.710900
N      -0.267897   -0.816031   -1.153190
H      -0.437920    1.966980    0.860345
H      -0.428636    1.887365   -0.967883
H       1.870734    0.839660   -0.921933
H       1.876393    0.912468    0.906592
H       0.492312   -1.166226    1.876880
H      -1.130749   -0.426701    1.844426
H      -1.131127   -2.717651   -1.313888
