23

C       0.061929    1.527361    0.173521
C      -0.058441    0.014151   -0.047949
C       0.669307   -0.497649   -1.275855
C       2.226525   -0.429233   -1.422058
C       1.987147   -1.552218   -2.467934
C       0.827505   -2.026585   -1.550726
C       1.230829   -0.795410   -3.567436
O       0.612683   -1.724240   -4.444110
C       0.232815    0.011891   -2.670100
H       1.110142    1.832318    0.264248
H      -0.377696    2.093536   -0.653812
H      -0.452080    1.830721    1.090749
H       0.330305   -0.510196    0.834808
H      -1.119633   -0.261804   -0.120814
H       2.677075    0.509311   -1.762274
H       2.746833   -0.792707   -0.532005
H       2.780963   -2.221296   -2.799080
H       1.186063   -2.566359   -0.670381
H      -0.002598   -2.561218   -2.017992
H       1.902495   -0.131186   -4.130550
H       0.087253   -1.229273   -5.080081
H      -0.802935   -0.255549   -2.905193
H       0.345869    1.094555   -2.780167
