20

C       0.889999    1.269061   -0.007254
O       0.032741    0.160509    0.228470
C       0.497902   -0.663960    1.257323
C      -0.125493   -2.006530    1.423036
C      -1.265229   -2.504498    0.561072
C       1.333529   -1.904569    0.944530
C       1.808166   -2.323904   -0.420362
N       1.147357   -1.808571   -1.501812
O       2.738140   -3.101847   -0.537468
H       1.886836    0.945943   -0.334968
H       0.425598    1.871239   -0.791130
H       0.996502    1.881590    0.898649
H       0.775903   -0.107394    2.152911
H      -0.203748   -2.329928    2.457954
H      -1.176255   -2.192754   -0.478945
H      -1.302691   -3.598224    0.577974
H      -2.218652   -2.128498    0.946887
H       2.079161   -2.175836    1.682894
H       0.524951   -1.023685   -1.388602
H       1.534758   -2.018201   -2.407490
