23

C       0.150639    1.585237   -0.274932
C      -0.004593    0.087597    0.029108
C       0.507059   -0.754594   -1.147509
C       0.702550   -0.329033    1.331914
C       0.109846    0.291078    2.602140
N       0.774791   -0.184237    3.805703
C       0.061431   -0.671486    4.876110
N       0.845007   -0.925306    6.001615
O      -1.142921   -0.848673    4.867315
H       1.209268    1.854536   -0.376454
H      -0.346888    1.844231   -1.215332
H      -0.280986    2.215603    0.507823
H      -1.076862   -0.123188    0.152240
H       1.579729   -0.591228   -1.308365
H       0.356988   -1.824322   -0.968626
H      -0.009953   -0.492815   -2.076641
H       0.657109   -1.419728    1.437110
H       1.769963   -0.071374    1.258733
H       0.156386    1.386899    2.557000
H      -0.941759    0.015186    2.711861
H       1.709758    0.148233    3.979773
H       1.793884   -1.231915    5.843209
H       0.351890   -1.486052    6.680449
