17

C       0.184739    1.535071   -0.215336
C       0.018350    0.018211   -0.098938
O       0.746946   -0.593921   -1.170101
C       1.366816   -1.804299   -0.733637
C       1.446088   -1.703773    0.772298
O       2.024265   -0.471621    1.221552
C       0.600048   -0.580417    1.172920
C      -1.465258   -0.341288   -0.220592
O      -2.241102   -0.336597    0.699772
H       1.240728    1.782137   -0.086005
H      -0.140481    1.879799   -1.200807
H      -0.407818    2.043712    0.549979
H       0.773391   -2.688138   -1.015360
H       2.345576   -1.871906   -1.219443
H       1.627329   -2.579441    1.388546
H       0.055877   -0.512963    2.108312
H      -1.771218   -0.599100   -1.259540
