18

C       0.171831    1.620607    0.025422
C      -0.089193    0.110554   -0.018825
C       0.615371   -0.521644   -1.230596
N       0.169139   -1.874082   -1.522091
C       0.365618   -2.979550   -0.750306
O       0.265627   -4.118189   -1.167620
N       0.699992   -2.761706    0.595219
C       0.619499   -1.662096    1.445919
N       0.301683   -0.450433    1.265629
H       1.245695    1.824463    0.095751
H      -0.218937    2.119662   -0.867246
H      -0.306008    2.050704    0.908075
H      -1.168520   -0.053984   -0.147685
H       0.398286    0.076089   -2.119492
H       1.702588   -0.482632   -1.072435
H      -0.013786   -2.116006   -2.482823
H       0.891368   -3.644298    1.046905
H       0.896043   -1.960101    2.459929
