18

C       0.014277    1.544857    0.044104
C       0.026190    0.029840   -0.062633
C       0.803695   -0.497213   -1.272240
C       1.066886   -1.972230   -1.136658
C       0.928673   -2.610358    0.020753
C       0.558130   -1.863109    1.283828
O       0.623611   -0.463170    1.147258
C      -0.783450   -2.292495    1.762916
N      -1.827213   -2.625256    2.130961
H       1.033957    1.927844    0.150740
H      -0.430626    1.985218   -0.853187
H      -0.566405    1.862730    0.913489
H      -1.007557   -0.345215   -0.117358
H       0.233381   -0.299448   -2.188161
H       1.752514    0.047782   -1.377480
H       1.377484   -2.517704   -2.023529
H       1.084347   -3.679569    0.119159
H       1.272129   -2.114888    2.078558
