21

C       0.523916    1.319426    0.241882
C      -0.265689    0.043579   -0.050744
O      -1.651067    0.304628   -0.255786
C       0.215539   -0.604291   -1.331020
O       1.472129   -1.281241   -1.275985
C       0.291696   -2.053924   -1.563387
C      -0.102725   -3.121368   -0.574869
C       0.823620   -4.331746   -0.651059
O       0.351672   -5.292491    0.280718
H       1.587906    1.091139    0.354207
H       0.402423    2.041665   -0.572051
H       0.178334    1.785902    1.171691
H      -0.122114   -0.658900    0.782417
H      -1.959079    0.856033    0.470188
H       0.083944    0.035961   -2.206532
H       0.239803   -2.371650   -2.607839
H      -0.088167   -2.736359    0.447524
H      -1.128844   -3.445074   -0.787067
H       0.825098   -4.736511   -1.676830
H       1.852336   -4.015807   -0.421096
H       0.954102   -6.041763    0.270429
