19

C      -0.025547    1.473638   -0.004762
C      -0.007781   -0.030534   -0.009576
C      -0.261857   -0.938167   -1.181607
C       0.882287   -1.939670   -1.242707
O       1.747658   -1.621155   -0.149278
C       1.033277   -0.841480    0.787899
O       0.312714   -1.644010    1.700732
C      -0.957761   -1.968958    1.129586
C      -1.195234   -0.953021    0.021756
H       0.913560    1.884745   -0.391707
H      -0.838123    1.855006   -0.630894
H      -0.172436    1.867460    1.007159
H      -0.655582   -0.546628   -2.113272
H       0.542734   -2.982118   -1.164980
H       1.452249   -1.838907   -2.172819
H       1.762978   -0.267348    1.360976
H      -0.954519   -3.005949    0.765341
H      -1.717941   -1.889360    1.914385
H      -2.200177   -0.571215   -0.121894
