23

C      -0.044506    1.577287   -0.059497
C       0.034549    0.047704    0.042990
C       0.850403   -0.365363    1.276366
C      -1.379955   -0.561927    0.020442
C      -1.449175   -2.085496   -0.057055
C      -1.291874   -2.970293    1.245057
C      -2.690032   -3.535733    0.974331
O      -3.595918   -2.424826    0.965869
C      -2.850232   -2.703213   -0.226651
H       0.954385    2.025099   -0.091845
H      -0.583103    1.891201   -0.959888
H      -0.569418    2.000252    0.805515
H       0.565912   -0.319723   -0.847907
H       0.347229   -0.055142    2.200222
H       1.003808   -1.446947    1.327127
H       1.838003    0.107979    1.263987
H      -1.946142   -0.224897    0.897749
H      -1.909085   -0.157297   -0.853951
H      -0.779143   -2.459905   -0.839859
H      -0.492830   -3.710466    1.158197
H      -1.194695   -2.435941    2.192638
H      -3.102001   -4.506853    1.222960
H      -3.420723   -2.862306   -1.135485
