8

F       0.002287    0.044739    0.003176
C      -0.025258    1.358001    0.010722
C      -1.238343    2.042659    0.030558
N      -1.218269    3.362178    0.037450
N      -0.036167    3.987656    0.025110
N       1.089620    3.325330    0.006509
N       1.119821    1.986889   -0.001142
H      -2.200343    1.540186    0.040611
