14

C      -0.004957    1.589323    0.022549
C       0.007348    0.061749   -0.042391
O       0.670872   -0.390132   -1.232413
C      -0.158675   -0.681647   -2.281154
N       0.585123   -1.064559   -3.350690
O      -1.362003   -0.580097   -2.250926
C       0.722627   -0.532759    1.095320
N       1.266340   -0.977222    2.012000
H       1.012454    1.983512   -0.028104
H      -0.587571    1.973515   -0.817601
H      -0.467868    1.923093    0.954885
H      -1.018542   -0.318546   -0.057158
H       1.556757   -1.290675   -3.225502
H       0.091147   -1.455748   -4.133486
