22

C       0.036236    1.619791    0.096760
C       0.111687    0.106478    0.094904
C       1.305267   -0.726887   -0.330568
C       2.692872   -0.103566   -0.388122
C       2.955075    0.512260    1.012747
C       1.914927   -0.120949    1.973677
C       0.826883   -0.762426    1.110899
C       0.099679   -1.949974    1.701011
H       0.957660    2.100713    0.428040
H      -0.185625    1.996297   -0.908523
H      -0.767221    1.964276    0.758033
H      -0.829555   -0.337629   -0.226653
H       1.109965   -1.564536   -0.994098
H       3.423210   -0.891696   -0.604170
H       2.796061    0.642204   -1.184732
H       3.978159    0.319899    1.348733
H       2.848742    1.599415    0.984153
H       2.381970   -0.909972    2.575392
H       1.515977    0.612797    2.684137
H      -0.481967   -1.664468    2.586377
H      -0.596573   -2.390367    0.980032
H       0.801950   -2.734300    2.009583
