18

C      -0.091312    1.688008    0.154083
C      -0.062438    0.177358    0.057875
C      -1.371799   -0.458601   -0.408266
C      -1.730247   -0.070242   -1.774540
N      -1.999340    0.246158   -2.852824
C       1.213716   -0.510763   -0.332420
C       0.710973   -0.628745    1.102528
C       1.402635    0.014981    2.179726
C       1.979275    0.546533    3.092068
H       0.856767    2.074473    0.532883
H      -0.279509    2.132422   -0.828540
H      -0.882143    2.022597    0.834980
H      -1.303586   -1.551407   -0.371102
H      -2.192467   -0.169093    0.259538
H       1.164957   -1.401444   -0.949578
H       2.089136    0.106055   -0.497946
H       0.274752   -1.589361    1.364760
H       2.490584    1.014018    3.896747
