20

O       0.017850    1.509484    0.067364
C       0.027432    0.090593    0.002702
C      -1.375366   -0.526394    0.045518
C      -2.103369   -0.213296    1.372338
C      -3.560546   -0.574996    1.301308
C      -4.222735   -0.572272    0.142728
C      -3.563939   -0.214790   -1.135836
C      -2.843822    1.097476   -1.239793
N      -2.096657   -0.155988   -1.180060
H      -0.306311    1.830998   -0.779279
H       0.545444   -0.260595   -0.900156
H       0.598618   -0.248533    0.873779
H      -1.249334   -1.615560   -0.018761
H      -1.611689   -0.763271    2.183789
H      -1.968070    0.849389    1.612205
H      -4.069610   -0.840311    2.223315
H      -5.272415   -0.846601    0.095499
H      -4.019582   -0.618293   -2.037657
H      -2.799212    1.617433   -2.194441
H      -2.881363    1.743553   -0.367042
