20

C       0.069846    1.572865    0.069503
C       0.022256    0.043326    0.050905
O       0.788347   -0.516872    1.111092
C      -1.412967   -0.498924    0.065015
C      -1.621277   -2.050195    0.017609
C      -2.616633   -1.954889    1.216935
C      -2.146077   -0.528789    1.398017
N      -2.131625    0.313450    2.346149
O      -2.842640   -0.166915    3.463829
H       1.108777    1.913675    0.077265
H      -0.427865    1.994159   -0.810554
H      -0.434001    1.959955    0.961129
H       0.507059   -0.322267   -0.863417
H       0.395106   -0.199791    1.933787
H      -2.007716    0.007709   -0.704684
H      -2.014856   -2.459210   -0.913958
H      -0.702528   -2.571900    0.291199
H      -3.668960   -2.017983    0.921582
H      -2.457194   -2.619952    2.068786
H      -2.757126    0.561663    4.088054
