17

C       0.052253    1.580808   -0.318989
C      -0.000658    0.104358   -0.025634
O      -1.189664   -0.543744   -0.467039
C      -2.292750   -0.390529    0.299780
O      -3.350855   -0.853479   -0.001891
C       1.227210   -0.770428   -0.175823
O       2.453601   -0.193015   -0.481244
C       0.645015   -0.510485    1.199673
O       1.367073    0.368918    2.021535
H       1.044960    1.980600   -0.111328
H      -0.171483    1.747490   -1.376663
H      -0.672969    2.137348    0.282964
H      -2.100598    0.191834    1.219945
H       1.082304   -1.744832   -0.632221
H       2.736076    0.286599    0.309855
H       0.107932   -1.305938    1.711688
H       1.923201   -0.159907    2.604857
