21

C      -0.116869    1.557324   -0.008178
C      -0.029455    0.042729   -0.010447
C       1.253844   -0.640829   -0.562696
O       2.004910   -0.143116    0.615431
C       0.719363   -0.676770    1.163250
C       0.494084   -0.607622    2.640230
C       0.906192   -1.894731    0.240525
C       0.131312   -3.138324   -0.025237
C       1.591719   -3.195459    0.426091
H       0.838338    1.994148    0.289967
H      -0.378238    1.933656   -1.003212
H      -0.892193    1.903569    0.684443
H      -0.967364   -0.436805   -0.309903
H       1.730945   -0.546379   -1.538936
H       0.488731    0.431856    2.981854
H      -0.468739   -1.060497    2.898251
H       1.285495   -1.142691    3.174089
H      -0.630050   -3.441998    0.687034
H      -0.092747   -3.405275   -1.053377
H       2.336434   -3.500299   -0.302112
H       1.794320   -3.537818    1.436211
