18

C      -0.030820    1.474476    0.024866
C       0.021867   -0.040889   -0.004537
O       0.674919   -0.470671    1.199845
C       0.814982   -1.794728    1.351940
C       1.406658   -2.438790    2.419771
N       1.294912   -3.752752    2.093926
C       1.740008   -4.912314    2.837921
N       0.680438   -3.911965    0.915499
N       0.385711   -2.717082    0.457865
H       0.976584    1.898016    0.069876
H      -0.522882    1.847076   -0.878368
H      -0.591557    1.827481    0.895061
H      -0.980715   -0.481324   -0.050898
H       0.579996   -0.411146   -0.872122
H       1.867958   -2.087642    3.325435
H       1.247448   -4.957099    3.813343
H       1.471409   -5.791266    2.252182
H       2.823708   -4.885154    2.982585
