18

C      -0.368193   -1.249385   -0.336768
C      -0.181278   -0.085904   -0.088403
C      -0.035542    1.332867    0.062177
C       0.529992    2.079950    1.238746
C       1.358616    1.477997    2.346376
C       1.714396    0.010536    2.379725
C       2.640211    0.984115    1.700937
C       2.494399    1.235956    0.195166
N       1.268125    2.047159   -0.035923
H      -0.524337   -2.283471   -0.521644
H      -0.806830    1.867917   -0.492262
H       0.042534    3.021833    1.481523
H       1.373620    2.033320    3.276800
H       2.035142   -0.376170    3.342020
H       1.147338   -0.690118    1.784809
H       3.605696    1.182865    2.153236
H       3.340004    1.826665   -0.168422
H       2.457309    0.313714   -0.395248
