17

O      -0.037333    0.026236    0.353413
C      -0.007327    1.196016    0.132675
C      -1.035978    2.311854   -0.119666
C      -1.620154    2.940195    1.158522
C      -0.657030    3.938024    1.842873
C       0.770919    3.487272    2.074281
C       1.546957    2.802818    1.229466
C       1.070816    2.280720   -0.097880
O       0.035083    3.111747   -0.685676
H      -1.809993    2.080508   -0.859155
H      -2.547412    3.470586    0.916427
H      -1.892848    2.133506    1.849192
H      -0.632194    4.853450    1.240183
H      -1.095666    4.221856    2.804898
H       1.211422    3.800815    3.017713
H       2.561434    2.539865    1.515013
H       1.882648    2.064720   -0.798059
