21

C      -0.094095    1.597378    0.082463
C      -0.179374    0.113231    0.364409
C      -1.262093   -0.727121   -0.159251
O       0.038547   -0.759628   -0.750005
C       1.328618    2.070750   -0.054359
C       2.180037    2.468684    1.123150
C       1.926620    3.478979    0.035348
C       2.839744    3.193758   -1.162397
C       2.240504    1.751512   -1.251214
H      -0.655217    1.808601   -0.836902
H      -0.590727    2.141659    0.896974
H       0.320023   -0.214276    1.278210
H      -1.557831   -1.630153    0.373290
H      -2.042160   -0.275383   -0.771535
H       1.640403    2.641531    2.049927
H       3.174143    2.047046    1.261002
H       1.428324    4.419313    0.243264
H       2.599818    3.795517   -2.041872
H       3.915282    3.273228   -0.970952
H       2.930931    0.912893   -1.117903
H       1.679675    1.589617   -2.174395
