15

N      -0.284515    0.990811    0.405445
C      -0.434197   -0.258023    0.382988
O      -0.775920   -0.864838   -0.785142
C      -0.989379   -2.262563   -0.736031
C      -2.370746   -2.613501   -0.213176
C      -2.578393   -3.842554    0.580324
O      -2.519402   -2.567209    1.211151
C      -3.491543   -2.076394   -0.965815
N      -4.375932   -1.670125   -1.587796
H      -0.014931    1.294302    1.338809
H      -0.314674   -0.957579    1.218985
H      -0.875201   -2.622232   -1.761985
H      -0.245358   -2.760333   -0.101508
H      -3.556118   -4.317929    0.570311
H      -1.728716   -4.499397    0.759202
