18

C       0.153339    1.413613   -0.401970
C       0.045205   -0.001546    0.104071
O       1.254561   -0.767181    0.199555
C       0.528548   -0.488571    1.411822
C       1.223587    0.411132    2.411066
C      -0.134360   -1.721667    2.017956
C       0.890357   -2.696158    2.567326
O       0.865030   -3.164575    3.676507
H       0.985413    1.952683    0.053655
H       0.307932    1.410265   -1.486035
H      -0.773331    1.961239   -0.198832
H      -0.784462   -0.562048   -0.334555
H       1.753966    1.226273    1.918226
H       0.498825    0.835925    3.113843
H       1.953737   -0.158587    2.995974
H      -0.830064   -1.452287    2.818216
H      -0.691015   -2.245970    1.230716
H       1.693231   -2.961332    1.844770
