14

N       0.032460    1.490820   -0.276220
C       0.251797    0.165192   -0.261547
O       1.305682   -0.377370   -0.526984
N      -0.899726   -0.631464    0.108626
C      -0.691109   -2.025960    0.130478
N      -1.616808   -2.836586    0.437964
C      -2.167082   -0.159300    0.438025
N      -2.490051    1.073873    0.457727
H       0.814279    2.069502   -0.529874
H      -0.886521    1.860666   -0.038994
H       0.334331   -2.263967   -0.144620
H      -1.270820   -3.792532    0.395653
H      -2.832028   -0.990248    0.673119
H      -3.464696    1.180804    0.725797
