15

O      -0.234303    1.462198   -0.117926
C      -0.154524    0.071931   -0.169109
C       0.716865   -0.439575    0.985378
O       1.261191    0.332877    1.730330
C      -1.552784   -0.541728   -0.011775
O      -1.776303   -1.716821   -0.136806
C       0.463136   -0.447487   -1.477788
C       0.626827    0.443240   -2.629885
O       1.740410    0.078245   -1.803631
H       0.390631    1.740261    0.572623
H       0.810590   -1.536707    1.075304
H      -2.330095    0.210550    0.236341
H       0.335946   -1.518478   -1.628077
H       0.633306    0.019535   -3.632301
H       0.309440    1.477588   -2.537847
