21

O       0.080404    1.317608   -0.266339
C      -0.032326   -0.038444    0.149457
C      -1.455582   -0.532533    0.140911
C      -2.482441    0.141654    1.058003
C      -3.499954   -0.984783    1.383203
C      -3.270974   -2.011747    0.267360
C      -3.465725   -1.361035   -1.143695
C      -1.959033   -1.104185   -1.186903
C      -1.735218   -2.005833    0.014745
H      -0.343840    1.385198   -1.128303
H       0.597824   -0.699917   -0.467903
H       0.372877   -0.061223    1.167612
H      -1.996584    0.528442    1.959287
H      -2.960630    0.997102    0.570631
H      -3.274173   -1.434626    2.356945
H      -4.534446   -0.627276    1.417511
H      -3.763132   -2.972559    0.418580
H      -3.761737   -2.101726   -1.891153
H      -4.143916   -0.501963   -1.210120
H      -1.354518   -1.024707   -2.085533
H      -1.020928   -2.803596    0.173779
