20

C       0.265042    1.593338    0.032791
C      -0.095637    0.129212   -0.257568
N       0.681896   -0.416070   -1.358995
C       1.814751   -0.959286   -1.114440
N       2.452666   -1.158717    0.072859
C       2.622516   -1.530712   -2.278343
O       3.733897   -2.011443   -2.091899
N       1.989910   -1.437146   -3.461347
C       2.562126   -1.895060   -4.706641
H       1.308427    1.693467    0.350329
H       0.133853    2.201356   -0.866789
H      -0.372856    2.001304    0.823344
H       0.011496   -0.471906    0.660827
H      -1.153499    0.074985   -0.537782
H       2.204242   -0.632538    0.890450
H       3.394018   -1.515113   -0.011892
H       1.080093   -0.995904   -3.415703
H       3.542561   -2.320048   -4.485999
H       1.936098   -2.664482   -5.172294
H       2.683032   -1.069489   -5.417280
