21

C      -0.228457    1.481763   -0.069051
C       0.007343   -0.017117   -0.010758
C      -1.152960   -0.884474    0.527958
O      -0.310801   -1.469818    1.546142
C       0.812346   -0.640147    1.168251
C       1.954635   -1.460063    0.569067
C       1.421586   -1.853038   -0.820001
C       0.661624   -0.593696   -1.282227
O      -0.335867   -0.815843   -2.266396
H       0.710671    2.025658   -0.223085
H      -0.896779    1.730810   -0.900688
H      -0.684429    1.852651    0.854462
H      -1.979567   -0.310602    0.966384
H      -1.558340   -1.630783   -0.162512
H       1.116150    0.019798    1.989325
H       2.847640   -0.828198    0.481314
H       2.212522   -2.317260    1.197080
H       2.207674   -2.154229   -1.519237
H       0.713315   -2.683333   -0.731962
H       1.392771    0.146821   -1.649565
H       0.088542   -1.181062   -3.048682
