20

C      -0.363900    1.419267    0.298005
N      -0.001951    0.014845    0.171559
C       1.334552   -0.312991   -0.300061
C       0.939681   -0.584756    1.113597
C       1.580335    0.183145    2.239230
O       0.642320    0.292516    3.297271
C       1.155422    0.929366    4.437259
C       0.066600    0.958978    5.496417
O       0.204388    1.463372    6.578523
H       0.483875    2.098445    0.480968
H      -0.848001    1.737880   -0.630374
H      -1.078051    1.532218    1.118501
H       1.411203   -1.123898   -1.019580
H       2.031813    0.508608   -0.469195
H       0.672116   -1.602568    1.393207
H       2.478521   -0.356204    2.584334
H       1.909372    1.182215    1.917081
H       2.032898    0.400628    4.848362
H       1.475716    1.964666    4.228989
H      -0.877549    0.465601    5.176934
