20

C       0.280613    1.263334    0.318864
C       0.197425   -0.202858   -0.110150
C       0.691618   -0.471071   -1.546607
C       2.252888   -0.392074   -1.705651
C       2.328852   -1.933341   -1.655548
O       2.747083   -2.335822   -0.364168
C       0.791722   -2.001304   -1.881107
C      -0.066582    0.310339   -2.517423
N      -0.665632    0.922531   -3.295124
H       1.308697    1.637723    0.274925
H      -0.335963    1.900762   -0.322059
H      -0.069198    1.380563    1.348541
H       0.799273   -0.830151    0.554994
H      -0.838403   -0.555265   -0.033348
H       2.558559    0.017434   -2.669399
H       2.787919    0.120024   -0.904223
H       2.940520   -2.408260   -2.432255
H       2.647051   -3.291587   -0.300653
H       0.234476   -2.663031   -1.212861
H       0.524967   -2.222475   -2.916573
