19

C       0.026571    1.493009   -0.052965
C      -0.025695   -0.009401    0.057002
C      -1.285866   -0.741422   -0.406568
C      -1.259620   -2.130688    0.279638
C      -0.279173   -1.970130    1.425999
N      -0.173173   -2.667950    2.487452
O      -1.105527   -3.721700    2.498396
C       0.572411   -0.780890    1.195159
N       1.244381   -0.716581   -0.127446
H       0.980676    1.871515    0.321130
H      -0.072706    1.808591   -1.098060
H      -0.785452    1.956990    0.517107
H      -2.166005   -0.175700   -0.081501
H      -1.338264   -0.808925   -1.498958
H      -2.236613   -2.442587    0.654595
H      -0.930857   -2.927632   -0.397255
H      -0.939356   -4.128826    3.355069
H       1.112535   -0.336341    2.023093
H       1.125609   -1.590445   -0.636087
