17

C      -0.159325    1.507366   -0.069499
C       0.040365    0.020250    0.095523
O       0.176076   -0.518294    1.169024
C       0.030386   -0.796150   -1.200983
C       0.490252   -2.251305   -1.072722
O      -0.257748   -2.987879   -2.046918
C      -1.555027   -2.444836   -2.088048
C      -1.404613   -0.958844   -1.759631
O      -2.232717   -0.100028   -1.898996
H       0.675804    1.935716   -0.636271
H      -1.068548    1.684087   -0.654836
H      -0.226159    1.988692    0.906549
H       0.593286   -0.254155   -1.970938
H       1.548018   -2.399323   -1.294798
H       0.286017   -2.611153   -0.055934
H      -1.993738   -2.598187   -3.077671
H      -2.227348   -2.895045   -1.336160
