23

C       0.447161    1.393374    0.025017
N      -0.021869    0.009414    0.023701
C      -0.066531   -0.697365    1.210652
N      -0.209398    0.078852    2.366916
O       0.029013   -1.912164    1.297702
C      -0.009927   -0.738954   -1.275174
C      -0.240937    0.250384   -2.433868
C       1.342641   -1.452100   -1.462242
C      -1.170668   -1.753420   -1.315707
H       1.356814    1.499946   -0.576984
H      -0.300905    2.091024   -0.368504
H       0.705598    1.691040    1.039461
H      -0.820725    0.880451    2.312046
H      -0.403161   -0.514929    3.160289
H       0.574287    0.966846   -2.558290
H      -0.316590   -0.318309   -3.364421
H      -1.175697    0.805413   -2.306435
H       1.499712   -2.172460   -0.658607
H       1.367345   -1.978974   -2.421900
H       2.168812   -0.732391   -1.457134
H      -2.126934   -1.241868   -1.163546
H      -1.196534   -2.229593   -2.300863
H      -1.059355   -2.522011   -0.554768
