20

C      -0.903550    1.480474   -0.516952
C      -1.421574    0.126496   -0.969102
O      -1.390562   -0.756743    0.155141
C      -1.830596   -2.057998   -0.110823
C      -2.770201   -2.663837    0.907563
C      -3.280650   -2.306223   -0.459112
C      -0.808940   -3.007203   -0.692533
N       0.463678   -2.514028   -0.706214
O      -1.108709   -4.115323   -1.099208
H      -0.929519    2.191343   -1.348125
H      -1.517457    1.875116    0.297588
H       0.128293    1.406211   -0.160474
H      -2.449957    0.210181   -1.346075
H      -0.804166   -0.277871   -1.783467
H      -2.628434   -3.711362    1.144209
H      -3.039352   -2.016963    1.734279
H      -3.918033   -1.433982   -0.544538
H      -3.472924   -3.110605   -1.158379
H       0.669727   -1.691940   -0.162976
H       1.206535   -3.156754   -0.927885
