21

C       0.148747    1.639403    0.088214
C      -0.032574    0.116649   -0.058651
C       0.679083   -0.450578   -1.253941
C       1.927061   -0.916689   -1.317231
C       2.250609   -1.354792   -2.716225
O       1.085169   -1.040508   -3.477990
C       0.074124   -0.569497   -2.610060
C      -1.330605   -1.066281   -2.865108
C      -0.946870    0.359855   -3.207875
H       1.206459    1.890474    0.210705
H      -0.217682    2.175907   -0.791670
H      -0.395252    2.011041    0.962279
H       0.340212   -0.374677    0.846572
H      -1.102934   -0.116201   -0.115215
H       2.627473   -0.991813   -0.494456
H       3.116598   -0.827114   -3.144551
H       2.465946   -2.434435   -2.781306
H      -1.441439   -1.765479   -3.686140
H      -1.991577   -1.240629   -2.022482
H      -1.348500    1.164678   -2.601836
H      -0.810518    0.603494   -4.255622
