15

C       0.079359    1.410468    0.030494
N      -0.033751   -0.032689    0.005894
N      -0.177946   -0.711073   -1.126052
C      -0.171027   -1.985837   -0.730584
C      -0.010261   -2.023169    0.662765
C       0.029896   -3.201864    1.581409
O       0.471280   -4.321971    0.828728
N       0.082195   -0.767544    1.107578
H       1.127671    1.715887    0.104683
H      -0.347826    1.794103   -0.895114
H      -0.468366    1.796126    0.891372
H      -0.272695   -2.795839   -1.432808
H       0.698056   -2.979662    2.426452
H      -0.973262   -3.380751    2.001514
H       0.368805   -5.106024    1.375486
