17

O       0.005035   -0.070235    0.149470
C      -0.013617    1.128769    0.009007
C      -1.329461    1.913343   -0.059543
C      -1.177589    3.148641   -0.979891
O      -0.059155    3.896734   -0.498972
C       1.066413    3.180022   -1.010087
C       1.277463    1.949787   -0.094635
C       0.596738    2.742549   -2.388849
C      -0.733125    2.723923   -2.370945
H      -2.122555    1.232334   -0.380102
H      -1.572585    2.263790    0.951703
H      -2.064059    3.786942   -0.949888
H       1.935177    3.842868   -1.003695
H       1.537826    2.307264    0.909836
H       2.080366    1.291092   -0.436684
H       1.256600    2.426925   -3.185954
H      -1.405106    2.389650   -3.150122
