20

O      -0.049352    1.285443   -0.441635
C       0.025422   -0.033175    0.042191
C      -0.137932   -1.132667   -0.978880
C      -1.261159   -0.795255   -0.007066
C      -1.684786   -1.675525    1.161834
N      -0.689490   -2.025304    2.179256
C       0.523756   -2.750559    1.806203
C       0.589510   -1.318769    2.218628
C       0.916573   -0.175418    1.265549
H       0.796381    1.495046   -0.854410
H      -0.285324   -0.802214   -2.001551
H       0.415154   -2.058868   -0.886988
H      -2.087735   -0.254332   -0.458540
H      -2.486480   -1.145559    1.692196
H      -2.123679   -2.611627    0.795422
H       0.824932   -3.529795    2.503351
H       0.699685   -3.003463    0.766092
H       0.935252   -1.120978    3.232838
H       1.974790   -0.230562    0.972877
H       0.800197    0.762201    1.821533
