13

C       0.061535   -3.736279   -0.030882
C       0.033747   -2.529425   -0.014639
C       0.003367   -1.170990    0.003831
C      -0.018390    0.039155    0.028281
C      -0.029074    1.473969    0.040509
C       0.531880    2.187733    1.248579
N       1.264047    2.215313   -0.006868
C      -1.108805    2.100390   -0.699533
N      -1.984875    2.595208   -1.267036
H       0.083079   -4.798232   -0.047269
H       0.079619    3.130929    1.538255
H       0.873958    1.554105    2.061168
H       2.021483    1.535424   -0.001563
