18

N      -0.223097    1.411153   -0.120912
C      -0.060080    0.182282    0.111629
C      -1.144581   -0.835864   -0.104138
C      -1.822853   -1.238443    1.222361
C      -0.811074   -1.445464    2.357674
C       0.420578   -2.244310    1.923412
C       1.460770   -1.531115    1.066405
O       2.561558   -1.965574    0.896188
O       1.175721   -0.284179    0.540978
H       0.627121    1.935068    0.096146
H      -1.873964   -0.400030   -0.787745
H      -0.714923   -1.716636   -0.594696
H      -2.538756   -0.462803    1.510555
H      -2.396439   -2.157129    1.055802
H      -0.489781   -0.473631    2.749995
H      -1.294091   -1.964943    3.191192
H       0.985389   -2.597731    2.791259
H       0.127956   -3.151858    1.379748
