18

C       0.008368    1.610831   -0.001398
C       0.073348    0.114057    0.049566
C       0.636014   -0.806385   -1.028999
O       1.113985   -1.745957   -0.025570
C       0.674906   -0.875441    1.015163
C       1.479381   -0.805227    2.268939
C      -0.851481   -0.766597    0.915563
C      -1.550359   -0.120851    1.986047
N      -2.098331    0.406635    2.859501
H       0.976639    2.032777   -0.290073
H      -0.737022    1.945889   -0.731677
H      -0.271451    2.029089    0.968941
H      -0.064017   -1.266017   -1.735624
H       1.479116   -0.364462   -1.571893
H       2.501392   -0.479914    2.053975
H       1.025832   -0.111247    2.980603
H       1.526362   -1.793425    2.739000
H      -1.383228   -1.594067    0.452599
