17

C       0.050696    1.332647    0.006018
O       0.024703   -0.083009    0.003304
C      -1.211093   -0.626882    0.011270
C      -2.446243   -0.050536    0.021686
O      -3.412828   -1.013898    0.026738
C      -2.783768   -2.224931    0.019347
C      -1.432019   -2.050122    0.009749
O      -0.419243   -2.943009    0.000247
C      -0.823622   -4.299932    0.000018
H       1.100528    1.627691   -0.001233
H      -0.450968    1.738992   -0.882981
H      -0.437610    1.735324    0.904075
H      -2.789814    0.968622    0.026539
H      -3.420134   -3.091984    0.022212
H      -1.411298   -4.537498    0.897400
H      -1.424576   -4.533238   -0.889659
H       0.087370   -4.899330   -0.008192
