17

C      -0.033144    1.457310   -0.027587
N      -0.041018   -0.006093   -0.010781
C      -1.207948   -0.706319    0.014711
C      -2.506132    0.046330    0.025540
C      -1.157332   -2.076032    0.029565
C       0.117294   -2.679715    0.017229
N       1.253007   -2.036014   -0.007036
C       1.249121   -0.657535   -0.022400
O       2.254711    0.021605   -0.044703
H       1.010922    1.761222   -0.048793
H      -0.546650    1.840527   -0.913947
H      -0.516098    1.860899    0.866913
H      -2.608886    0.679870   -0.861861
H      -3.341678   -0.654157    0.047325
H      -2.581422    0.702051    0.899457
H      -2.064546   -2.663429    0.049885
H       0.185477   -3.768451    0.028450
