18

C      -0.061796    1.571761   -0.270489
C       0.012768    0.101694    0.160694
C      -1.353761   -0.557460    0.124785
C      -1.857862   -1.249161   -1.088008
O      -0.993779   -1.299050   -2.180751
C      -1.554243   -2.086300    0.166170
C      -0.405232   -3.014874    0.181194
O      -0.392557   -4.053130    0.802417
H       0.922655    2.045922   -0.214667
H      -0.420398    1.657042   -1.300833
H      -0.743116    2.141215    0.371470
H       0.705586   -0.428736   -0.496547
H       0.419357    0.031505    1.176689
H      -2.109500   -0.022045    0.694765
H      -2.913099   -1.149604   -1.340708
H      -1.186882   -2.094124   -2.688664
H      -2.405108   -2.450560    0.732473
H       0.465900   -2.711817   -0.435232
