16

C       0.027234    1.473661   -0.057135
C       0.012449   -0.019585    0.020770
N      -0.046187   -0.751477   -1.085793
N      -0.041920   -2.037074   -0.640329
C       0.017240   -2.111362    0.706394
O       0.027523   -3.330740    1.291605
C       0.054972   -0.821562    1.197799
C       0.124201   -0.381532    2.626859
H       0.937014    1.892218    0.389350
H      -0.020421    1.789178   -1.101481
H      -0.823580    1.913917    0.476312
H      -0.081123   -2.801706   -1.291248
H       0.077556   -3.211247    2.245595
H       1.038975    0.183099    2.843872
H      -0.722154    0.258624    2.902818
H       0.109761   -1.234284    3.317078
