20

C      -0.127778    1.521745   -0.400483
C      -0.063013    0.076851    0.089327
O       0.344061   -0.001076    1.449265
C      -1.393636   -0.675640   -0.133406
O      -1.776228   -0.610679   -1.515688
C      -1.339196   -2.118018    0.383611
C      -2.681247   -2.851968    0.483206
N      -3.539037   -2.634683   -0.553212
O      -2.935650   -3.596544    1.410608
H       0.841199    2.009434   -0.267068
H      -0.412627    1.567709   -1.453754
H      -0.877865    2.085402    0.169525
H       0.721387   -0.460175   -0.464232
H      -0.220173    0.588896    1.961950
H      -2.188333   -0.128641    0.391662
H      -1.114066   -1.096353   -2.022683
H      -0.673157   -2.704230   -0.267067
H      -0.895887   -2.131010    1.379495
H      -3.328966   -1.942379   -1.256575
H      -4.450446   -3.059607   -0.506610
