19

C       0.385636    1.273842   -0.033544
C       0.395627   -0.240609   -0.125219
O       1.259598   -0.904308    0.405321
C      -0.749906   -0.869521   -0.904987
C      -0.741182   -2.409625   -0.981532
O      -2.059805   -2.875597   -1.100395
C       0.096940   -2.961390   -2.143742
C       1.558272   -2.603193   -2.238424
O      -0.448422   -3.689252   -2.948402
H       1.217666    1.612417    0.584600
H       0.468597    1.713624   -1.034090
H      -0.560758    1.627925    0.389382
H      -1.686633   -0.587075   -0.408150
H      -0.809190   -0.410948   -1.900846
H      -0.276335   -2.781887   -0.054442
H      -2.051076   -3.448680   -1.885876
H       2.032788   -2.626423   -1.255106
H       2.054449   -3.276518   -2.938449
H       1.660743   -1.576223   -2.609702
