14

C      -0.043517    1.371586    0.062550
O      -0.002269   -0.045838    0.008143
C       0.610690   -0.571297   -1.064090
C       1.221772    0.029539   -2.148475
N       1.670564   -0.999895   -2.924534
N       1.403466   -2.206921   -2.438340
C       0.750816   -1.967771   -1.291791
C       0.286692   -3.020207   -0.460126
N      -0.104451   -3.854465    0.239957
H       0.969334    1.794475    0.086016
H      -0.587454    1.783097   -0.797712
H      -0.567636    1.631264    0.982484
H       1.368655    1.060024   -2.421030
H       2.166030   -0.931373   -3.797872
