18

N      -0.124921   -1.135165    0.269931
C      -0.095125    0.003663    0.079480
C      -0.067159    1.451242   -0.146783
C       1.334949    2.009244   -0.230938
C       2.174685    2.272148    0.992143
C       1.720447    3.423369    0.104218
C       2.661569    3.857584   -1.008167
C       3.050582    2.517390   -1.673795
O       1.985243    1.602757   -1.407268
H      -0.602292    1.671542   -1.077249
H      -0.609567    1.939235    0.669363
H       1.690757    2.176559    1.958333
H       3.217015    1.972389    0.988541
H       1.003279    4.136042    0.495206
H       2.123952    4.504635   -1.708971
H       3.542040    4.402728   -0.655855
H       3.168873    2.584640   -2.758115
H       3.989345    2.131030   -1.255576
