16

C      -0.027580    1.519389   -0.046297
C      -0.033713    0.063883   -0.030789
C      -0.043829   -1.140472   -0.014770
C      -0.060762   -2.588868    0.010691
C       0.368300   -3.348522    1.335169
C      -1.005367   -4.027957    1.330838
O      -1.986915   -2.986663    1.398951
C      -1.431639   -3.301867    0.125553
H       0.638499    1.922487    0.724838
H       0.312264    1.908404   -1.012671
H      -1.029265    1.922495    0.139862
H       0.498883   -2.998602   -0.837205
H       1.206154   -4.027890    1.165718
H       0.565026   -2.717433    2.203120
H      -1.290079   -5.003701    1.705880
H      -2.118394   -3.561035   -0.672036
