18

N       0.313988   -1.172604    0.265591
C       0.109423   -0.038452    0.164127
C      -0.157698    1.377132    0.024419
C      -1.533528    1.740977   -0.518957
C      -1.757519    1.236914   -1.929215
C      -2.465079    2.086931   -2.918503
N      -1.019600    1.842239   -3.047930
C       0.572437    2.281330    0.967267
N       0.951075    2.236979   -0.446748
H      -2.304563    1.343478    0.152058
H      -1.610205    2.833581   -0.497653
H      -1.857041    0.156243   -2.014114
H      -3.078749    1.630503   -3.689779
H      -2.805930    3.067135   -2.592736
H      -0.489641    2.641877   -2.708548
H       0.081563    3.196770    1.285222
H       1.227374    1.826992    1.704290
H       1.799271    1.691896   -0.578747
