21

O       0.112473    1.368077   -0.219035
C      -0.055858   -0.013554   -0.006965
C       0.417456   -0.625504    1.310319
C      -0.430608   -0.144389    2.459963
C      -0.977728   -1.211822    1.559649
C      -1.505734   -0.606642    0.248862
C      -2.688546    0.323488    0.285376
C      -3.460218    0.611666   -0.977492
C      -4.085802   -0.224560    0.110404
H      -0.060791    1.821416    0.612290
H       0.405074   -0.497874   -0.871202
H       1.388477   -1.075124    1.480088
H      -0.099461   -0.479145    3.437514
H      -0.864291    0.853563    2.476553
H      -1.227194   -2.196576    1.935288
H      -1.700396   -1.394544   -0.486985
H      -2.602742    1.158083    0.975496
H      -3.832711    1.617520   -1.135616
H      -3.144826    0.110143   -1.886584
H      -4.192319   -1.290281   -0.065189
H      -4.887874    0.208144    0.698194
