21

C       0.055480    1.522699   -0.058415
C      -0.033491   -0.009767    0.027854
O       0.707714   -0.656406   -1.001718
C       0.091181   -0.700944   -2.264219
C       0.374463    0.416131   -3.311974
C       0.490033   -0.701335   -4.384559
C       0.714983   -1.723106   -3.235658
C       0.470780   -0.493777    1.314118
C       0.870941   -0.859008    2.386058
H       1.100275    1.838053   -0.002480
H      -0.372575    1.877380   -0.999370
H      -0.494131    1.980608    0.768762
H      -1.093240   -0.304827   -0.058706
H      -0.991762   -0.864876   -2.152048
H      -0.374142    1.199394   -3.456505
H       1.344410    0.877946   -3.107385
H      -0.457448   -0.870064   -4.903569
H       1.280357   -0.601978   -5.130559
H       1.777684   -1.840704   -3.006330
H       0.253651   -2.710370   -3.307504
H       1.226408   -1.194862    3.328702
