21

C       0.978006    1.196774   -0.278265
C      -0.115738    0.248680    0.204152
O      -0.498357   -0.655742   -0.854409
C       0.242480   -0.504213    1.521452
O      -0.898726   -0.615559    2.357207
C       0.806166   -1.895517    1.269290
O      -0.200618   -2.787932    0.854851
C       2.211017   -2.112776    0.757245
C       1.828021   -2.496309    2.176056
H       1.910892    0.658323   -0.484489
H       0.663635    1.703479   -1.195367
H       1.194297    1.957860    0.477174
H      -1.022805    0.818741    0.426948
H       0.299090   -0.864193   -1.353826
H       0.976858    0.100102    2.068038
H      -1.290720   -1.474087    2.145302
H      -0.572219   -2.387624    0.051009
H       2.350988   -2.919959    0.046800
H       2.868866   -1.261274    0.618502
H       2.210139   -1.897938    2.995384
H       1.717330   -3.552710    2.391009
