19

C      -0.193039    1.620451   -0.015724
C       0.051111    0.119093    0.017209
C       1.155438   -0.582109   -0.868061
C       2.390005    0.268666   -0.834773
C       2.895429    0.474314    0.385750
C       2.247838   -0.381323    1.438918
O       2.480810   -1.771097    0.985989
C       1.238591   -1.693189    0.309660
C       0.684784   -0.588047    1.222260
H       0.717392    2.186720    0.192336
H      -0.573915    1.938110   -0.992905
H      -0.941751    1.896728    0.735223
H      -0.893987   -0.403813   -0.180299
H       0.861711   -0.912255   -1.864709
H       2.797655    0.704869   -1.740520
H       3.761725    1.087492    0.604506
H       2.601653   -0.230539    2.459133
H       0.788029   -2.663284    0.093235
H       0.122464   -0.774840    2.138472
