18

C      -0.014062    1.557407    0.029583
O       1.325979    2.076470    0.033256
C       2.286296    1.062127   -0.052774
O       2.204451    0.178993    1.061361
C       0.911568   -0.439729    1.149035
C       0.029968    0.025121   -0.029613
C       0.764134   -0.413269   -1.293708
N       1.083295    0.645933   -2.272440
C       2.109065    0.206100   -1.311482
H      -0.508354    1.881097    0.954873
H      -0.548590    1.973908   -0.828260
H       3.262663    1.543884    0.017374
H       1.040296   -1.530221    1.144154
H       0.454222   -0.154979    2.105709
H      -0.978363   -0.390308    0.052247
H       0.621105   -1.431777   -1.642321
H       1.270276    0.219372   -3.176416
H       2.978127   -0.342525   -1.660375
