25

C      -0.123104    1.513362   -0.202846
O      -0.056609    0.142531    0.114745
C      -1.292440   -0.557686    0.000587
C      -1.625240   -0.851722   -1.468203
C      -1.211344   -1.853652    0.796745
C       0.109546   -2.454819    1.222586
C      -0.866224   -1.963111    2.269017
C      -0.520615   -0.725942    3.077354
C      -1.623018   -3.013912    3.062902
H       0.861479    1.939110    0.007062
H      -0.358504    1.692263   -1.261696
H      -0.873555    2.036976    0.409905
H      -2.091528    0.076398    0.423683
H      -1.681001    0.065540   -2.061143
H      -0.859138   -1.500714   -1.903230
H      -2.593675   -1.355556   -1.547788
H      -1.962369   -2.566765    0.464744
H       0.254863   -3.523914    1.104098
H       0.991865   -1.852813    1.041374
H       0.051108   -0.008413    2.488605
H      -1.428835   -0.227014    3.438833
H       0.071231   -0.999337    3.959263
H      -1.033891   -3.355053    3.922927
H      -2.568841   -2.614891    3.449745
H      -1.856564   -3.891601    2.451541
