16

N      -0.025016   -1.136823   -0.454808
C       0.002271   -0.009191   -0.199566
C       0.046372    1.416797    0.082365
C      -0.526898    2.357574   -1.034326
C       0.824753    3.130357   -1.081220
C       1.362735    2.288045    0.096985
C       0.900918    2.770804    1.494913
N      -0.210261    1.784325    1.482105
H      -0.786100    1.843397   -1.961428
H      -1.396601    2.928675   -0.698987
H       1.370481    2.953435   -2.010415
H       0.780555    4.208742   -0.907979
H       2.357166    1.852859    0.021103
H       1.601899    2.595979    2.317294
H       0.599895    3.826270    1.514823
H      -1.141726    2.135623    1.678760
