16

O       0.378555    1.279503   -0.186481
C       0.176440   -0.049770   -0.142690
C       0.002658   -0.995809   -1.139013
C       0.000654   -0.686518   -2.615380
C       1.340698   -0.059630   -2.930928
O       1.617183    1.091385   -2.655666
C      -0.171089   -2.251997   -0.475106
C      -0.118863   -2.028372    0.875002
N       0.095968   -0.673653    1.065963
H       0.728161    1.499282   -1.071834
H      -0.141543   -1.600946   -3.197179
H      -0.790120    0.025343   -2.886069
H       2.110799   -0.720187   -3.379441
H      -0.337957   -3.205125   -0.954122
H      -0.226668   -2.694661    1.714114
H       0.211077   -0.202490    1.946402
