23

C       0.358522    1.215614    0.462036
C       0.277960   -0.223098   -0.058645
C       0.566866   -0.364501   -1.557323
O      -0.346375    0.381652   -2.342100
C       2.082449   -0.209656   -1.933013
C       2.155922   -1.736626   -2.050447
C       3.141345   -2.569600   -2.808524
C       3.101983   -2.627026   -1.296173
C       0.626258   -1.840778   -2.033890
H       1.340290    1.662682    0.270317
H      -0.401590    1.854758   -0.001674
H       0.186154    1.250831    1.541622
H       0.985561   -0.854399    0.492122
H      -0.723832   -0.627176    0.132599
H      -0.258547    1.310881   -2.104952
H       2.189958    0.295296   -2.897784
H       2.738089    0.268520   -1.198657
H       2.769532   -3.426428   -3.361940
H       3.982207   -2.068563   -3.278192
H       3.916682   -2.164417   -0.747269
H       2.702577   -3.522682   -0.830120
H       0.175326   -2.587367   -1.373289
H       0.193879   -1.933978   -3.034028
