18

C      -0.172594    1.491986   -0.073763
N       0.093732    0.062783    0.090605
C       1.356439   -0.547502   -0.166071
C       2.567063    0.292719    0.282149
C       2.010545    0.288538    1.730928
O       1.853278    1.566007    2.303818
C       0.760439   -0.484308    1.258156
C       0.090876   -1.551090    2.021124
O       0.392600   -1.852711    3.153341
H       0.629156    2.153269    0.264981
H      -0.376010    1.675652   -1.133137
H      -1.076190    1.734709    0.492451
H       1.394560   -1.413524   -0.818845
H       3.518666   -0.232285    0.189081
H       2.655596    1.277263   -0.182449
H       2.604184   -0.369183    2.376968
H       1.493338    1.452574    3.189998
H      -0.725082   -2.063268    1.466978
