17

O       0.198853    1.336467   -0.181542
C       0.101595   -0.047357    0.035563
C       0.177654   -0.522302    1.508627
N      -1.305521   -0.631606    1.516586
C      -1.355537   -0.615308    0.055182
C      -2.492901    0.015276   -0.766497
O      -2.595122   -1.215390   -1.560511
C      -1.664469   -1.851958   -0.768296
N      -1.265738   -3.041330   -0.744245
H      -0.310807    1.783972    0.503998
H       0.781270   -0.524420   -0.670177
H       0.706453   -1.476346    1.613959
H       0.582976    0.199714    2.226220
H      -1.685454   -1.466991    1.949545
H      -3.416855    0.202691   -0.213793
H      -2.219548    0.870719   -1.387750
H      -1.727054   -3.611761   -1.454984
