21

C      -0.615879    1.007610   -0.026909
O       0.574831    0.246414    0.093725
C       0.938048   -0.444312   -1.095903
C       2.366756   -0.908873   -1.009744
C       2.499381   -2.169270   -1.414404
C       1.186658   -2.791718   -1.834309
C       0.983627   -4.235359   -1.365723
C       0.132989   -1.778357   -1.284740
O      -0.403912   -2.193990   -0.044555
H      -0.535201    1.740042   -0.842902
H      -1.491008    0.369639   -0.206183
H      -0.751204    1.540952    0.916891
H       0.785875    0.227871   -1.956270
H       3.159360   -0.245173   -0.685339
H       3.439436   -2.708705   -1.474809
H       1.127394   -2.777264   -2.933539
H       1.005205   -4.294053   -0.275987
H       0.017597   -4.625591   -1.700787
H       1.768302   -4.883414   -1.770275
H      -0.698163   -1.660723   -1.990753
H      -0.074999   -1.565066    0.613042
