17

C       0.022942    1.570608   -0.049020
C       0.050032    0.046704    0.003525
N       0.895293   -0.479030   -1.101033
C       1.588482   -1.391081   -0.561171
O       2.921604   -1.580332   -0.759747
C       3.352745   -0.782108    0.396514
C       2.188076   -0.918930    1.423865
C       0.699390   -0.583526    1.248894
N       1.251260   -1.861066    0.781743
H       1.037577    1.977746   -0.020391
H      -0.457098    1.913442   -0.968875
H      -0.536450    1.968912    0.804272
H      -0.979791   -0.334980   -0.055863
H       4.261360   -1.239808    0.792454
H       3.550864    0.240105    0.063821
H       2.491463   -1.156369    2.441132
H       0.112827   -0.619053    2.164620
