15

N      -0.148805   -1.128294   -0.098662
C      -0.080561    0.024974   -0.026831
C       0.051020    1.434676    0.084661
C      -0.702712    2.473533    0.844021
C       0.532156    3.365043    1.084612
C       0.440615    4.476080    0.009556
C       0.444661    3.293145   -0.970380
C       1.251103    2.420026    0.036849
N      -0.789641    2.447447   -0.647709
H      -1.620911    2.375318    1.408184
H       0.881491    3.525611    2.101503
H      -0.420508    5.149196    0.014494
H       1.370789    5.047839   -0.058990
H       0.629047    3.376656   -2.039043
H       2.313363    2.198590    0.017855
