17

O       0.092480    1.339715   -0.253794
C       0.049456   -0.079933   -0.015080
C       0.744343   -0.451580    1.271766
C       0.093665   -0.533144    2.434657
C      -1.364535   -0.303221    2.570711
C      -1.951796    1.010239    2.118142
C      -2.183187   -0.234065    1.280920
C      -1.442907   -0.464125    0.012687
O      -1.959122   -0.986326   -0.949346
H       0.986255    1.638244   -0.052281
H       0.488263   -0.610396   -0.869261
H       1.819075   -0.609823    1.228818
H       0.637921   -0.766785    3.346099
H      -1.845805   -0.785011    3.415064
H      -2.813149    1.393800    2.653255
H      -1.272740    1.752391    1.719460
H      -3.177762   -0.663904    1.283424
