15

N       0.177608    1.396668    0.032346
C       0.027764    0.001330   -0.007188
C      -1.022144   -0.854322    0.220697
N      -0.597684   -2.166165    0.163538
C       0.683107   -2.113753   -0.116205
C       1.610296   -3.265600   -0.330610
O       2.880360   -3.055376    0.284576
N       1.114550   -0.815625   -0.226928
H       0.366349    1.796872   -0.882086
H      -0.657727    1.835750    0.398815
H      -2.050014   -0.598586    0.430341
H       1.110259   -4.176863    0.020058
H       1.835204   -3.400576   -1.395503
H       2.731334   -2.996944    1.234688
H       2.073379   -0.522273   -0.319029
