18

C       0.039991    1.426907   -0.061268
O      -0.044060    0.017844   -0.061652
C       0.690241   -0.577703   -1.102452
C       0.540659   -2.103863   -0.980699
C       1.302213   -2.818660   -2.112804
C       0.891990   -4.211725   -2.271149
N       0.543604   -5.305131   -2.403709
C       1.038315   -2.552751    0.389977
O       2.042336   -3.197588    0.553996
H       1.076657    1.771104    0.072193
H      -0.350122    1.854854   -0.997245
H      -0.564847    1.787028    0.773343
H       0.318581   -0.246176   -2.086888
H       1.756335   -0.297195   -1.043468
H      -0.531384   -2.327656   -1.036019
H       1.137836   -2.302560   -3.064880
H       2.374886   -2.795788   -1.897060
H       0.416035   -2.217005    1.241685
