17

C      -0.832303    1.726505   -1.126533
N      -0.484204    0.327056   -1.124917
C      -0.633642   -0.430863   -0.115421
C      -1.170848   -0.116802    1.254137
N      -0.220265   -1.760453   -0.360985
C      -0.208844   -2.876641    0.436443
N      -0.601111   -2.931777    1.652625
C       0.315376   -4.043376   -0.264448
N       0.723040   -4.997668   -0.774507
H       0.058054    2.314261   -1.379852
H      -1.563313    1.910340   -1.922901
H      -1.244835    2.123678   -0.190273
H      -1.456454    0.931356    1.326400
H      -2.034763   -0.745406    1.480395
H      -0.425842   -0.344252    2.019564
H       0.122575   -1.867474   -1.305805
H      -0.491221   -3.871933    2.023557
