25

C       0.030475    1.594962    0.008940
C       0.012232    0.070519    0.174395
C      -1.391992   -0.518158    0.050795
C      -2.034726   -0.627495   -1.371268
C      -1.241596   -1.956036   -1.537902
C      -1.524928   -2.076004   -0.012150
C      -3.058477   -2.287288   -0.010539
C      -3.741944   -2.207778    1.353337
C      -3.444261   -1.148663   -1.024738
H       1.040728    1.996689    0.135484
H      -0.324098    1.891812   -0.983692
H      -0.616069    2.080763    0.748456
H       0.698493   -0.380090   -0.550871
H       0.410063   -0.189051    1.164656
H      -2.030457   -0.027077    0.795813
H      -1.967458    0.181536   -2.100760
H      -1.667601   -2.723302   -2.192477
H      -0.189298   -1.812211   -1.782160
H      -0.934219   -2.727249    0.636040
H      -3.284953   -3.267534   -0.446494
H      -3.542464   -1.256902    1.858540
H      -4.828783   -2.301632    1.251517
H      -3.400932   -3.013380    2.013441
H      -4.066265   -0.376882   -0.558868
H      -3.980645   -1.527604   -1.899816
