23

C       0.444887    0.744459   -0.733975
C       1.584299   -0.066691   -0.152526
O       2.830103    0.685621   -0.071224
C       3.208678   -0.063204    1.107133
C       1.739048   -0.477373    1.346625
C       1.016476    0.366596    2.414938
C      -0.485869    0.052159    2.452064
C       1.621640    0.082566    3.801715
O       1.151676    1.771716    2.148616
H       0.187757    1.599892   -0.108679
H       0.743282    1.105631   -1.724125
H      -0.443049    0.117403   -0.863790
H       1.749958   -0.954170   -0.784184
H       3.871044   -0.902425    0.855077
H       3.698996    0.570672    1.851887
H       1.571539   -1.537219    1.554453
H      -0.661247   -0.985004    2.755336
H      -0.976120    0.708399    3.176988
H      -0.957027    0.213801    1.481285
H       2.688885    0.319269    3.828351
H       1.124851    0.708024    4.548566
H       1.493227   -0.966521    4.088785
H       1.830021    1.898242    1.474022
