21

C       0.099251    1.416366   -0.580634
C       1.358939    1.693013    0.287394
C       1.261107    0.239000    0.813246
C      -0.197013    0.166263    0.294745
C       2.308190   -0.829890    0.443171
C       3.242774   -0.428969    1.638794
C       3.348979   -1.882410    2.140164
C       1.895412   -1.751050    1.645159
C       1.771115   -0.274245    2.166917
H      -0.665448    2.195512   -0.617899
H       0.362822    1.142817   -1.606023
H       2.277924    1.985826   -0.228292
H       1.157767    2.426189    1.075812
H      -0.922444    0.385018    1.085640
H      -0.509651   -0.749433   -0.215121
H       2.634975   -1.167672   -0.543254
H       4.003354    0.352919    1.623762
H       4.004766   -2.553457    1.575237
H       3.492267   -2.023256    3.216690
H       1.099204   -2.496738    1.637482
H       1.478432    0.028887    3.175128
