12

O      -0.400082    0.076312    0.006046
C      -0.114886    1.239257    0.009045
N       1.182201    1.760473   -0.000576
C       2.373870    1.063477   -0.015186
O       2.525464   -0.134307   -0.022540
C       3.583906    2.018804   -0.021454
O       3.447572    3.215976   -0.013945
C       4.979259    1.351309   -0.037820
O       5.969911    2.028815   -0.043943
H      -0.858090    2.059618    0.020203
H       1.291774    2.768376    0.003464
H       4.987954    0.248898   -0.043516
