11

C       0.011996    1.446282    0.063566
N      -0.089294    0.005540   -0.099242
C       0.587569   -0.621754   -1.088937
N       1.188560   -0.051348   -2.103706
O       1.659624   -1.122238   -2.829173
N       1.323417   -2.286431   -2.191938
N       0.679695   -2.007027   -1.146242
H       1.027160    1.772195    0.325760
H      -0.272453    1.938757   -0.869696
H      -0.678917    1.759798    0.847722
H      -0.249087   -0.556588    0.721087
