19

C      -0.050054    1.521759    0.044147
C      -0.016535    0.014932    0.075718
C      -1.238647   -0.691758   -0.498045
O      -1.080644   -2.095297   -0.583349
C      -0.771462   -2.733976    0.621756
C       0.599792   -3.335795    0.730713
C       0.257176   -2.084714    1.512128
C       0.753553   -0.735576    1.080158
O       1.234782   -0.600311   -0.263652
H       0.851270    1.934510    0.503919
H      -0.105016    1.887550   -0.987333
H      -0.923076    1.905111    0.583586
H      -2.119022   -0.417569    0.108100
H      -1.422377   -0.355138   -1.523969
H      -1.616732   -3.246875    1.077963
H       0.722646   -4.263581    1.277698
H       1.238409   -3.204325   -0.134501
H       0.124677   -2.183572    2.585053
H       1.335874   -0.183864    1.818508
