18

C      -0.076645    1.409710    0.016824
C      -0.012473   -0.081541    0.037241
C       0.172024   -0.992141   -1.215481
C       0.976146   -2.126211   -0.546771
C       1.908507   -1.421626    0.458622
N       0.672125   -0.861085    1.120453
C      -0.117921   -2.070090    0.576322
C      -1.020964   -1.132549   -0.274812
O      -2.374241   -1.003953   -0.441725
H       0.922739    1.848535   -0.083430
H      -0.683670    1.754989   -0.825787
H      -0.524174    1.791855    0.939594
H       0.232020   -0.587742   -2.217254
H       1.242678   -3.012425   -1.123218
H       2.402891   -2.113299    1.147161
H       2.625192   -0.678395    0.095579
H      -0.391849   -2.869333    1.262934
H      -2.674054   -1.679280   -1.060867
