16

C      -0.053786    1.526154   -0.144988
C       0.051539    0.027833    0.033206
C       1.304164   -0.768341   -0.160030
N       2.467114    0.037448    0.287104
C       1.970024   -0.058309    1.698030
C       1.930523    1.200857    2.450613
N       1.898768    2.175243    3.071309
C       0.656135   -0.699949    1.220156
H       0.899357    2.018833    0.053550
H      -0.341974    1.761610   -1.175025
H      -0.808682    1.952250    0.522767
H      -0.821079   -0.524375   -0.312991
H       1.419991   -1.592011   -0.854096
H       3.341959   -0.464788    0.186388
H       2.543470   -0.781670    2.287562
H       0.110641   -1.434942    1.796947
