18

C      -0.113375    1.551068    0.115761
C       0.032186    0.043443   -0.001873
C       0.791660   -0.516585   -1.243176
C       1.815371   -1.085451   -0.248153
O       2.820281   -1.736709   -0.299547
N       1.103731   -0.549697    0.834894
C       1.207163   -0.608718    2.222010
C       2.433390   -1.314766    2.750307
O       0.346844   -0.107348    2.913338
H       0.840318    2.052370   -0.079967
H      -0.848661    1.914399   -0.609105
H      -0.448690    1.820633    1.119502
H      -0.924160   -0.454405    0.182088
H       0.268222   -1.276837   -1.825506
H       1.201944    0.239838   -1.915754
H       2.522649   -2.316270    2.321612
H       3.337077   -0.771912    2.456705
H       2.364846   -1.363719    3.836768
