17

O       0.109707    1.262946    0.382725
C       0.104537   -0.123196    0.148306
C       0.152969   -0.901316    1.537942
O       0.734153   -0.225609    2.602097
C      -1.368323   -0.921927    1.417831
C      -2.422505   -0.324959    1.963747
C      -3.277963    0.225225    0.832935
O      -2.393983    0.259149   -0.316943
C      -1.353180   -0.672018   -0.061837
H      -0.771854    1.578521    0.130775
H       0.863048   -0.395943   -0.592390
H       0.629044   -1.880864    1.439383
H       0.559491    0.711579    2.427014
H      -2.597069   -0.094752    3.006641
H      -4.160610   -0.388710    0.597929
H      -3.623647    1.245986    1.031995
H      -1.402832   -1.526405   -0.746210
