18

C      -0.332676    1.389727   -0.837871
C      -1.014470    0.055407   -0.549389
C      -0.592093   -0.557039    0.770111
O       0.219522   -0.056141    1.513923
C      -1.249725   -1.866477    1.190346
C      -2.556985   -1.740358    2.015961
C      -3.175808   -2.473513    0.844624
N      -4.322422   -2.888223    0.565645
O      -1.990127   -2.549740    0.130378
H      -0.655108    1.784747   -1.804817
H      -0.569806    2.126705   -0.066175
H       0.754198    1.276439   -0.854268
H      -2.109336    0.151277   -0.546387
H      -0.813491   -0.686418   -1.333727
H      -0.494670   -2.524287    1.626502
H      -2.571486   -2.280589    2.962764
H      -2.926286   -0.725163    2.171439
H      -4.343994   -3.354480   -0.342670
