20

C      -0.024197    1.660151    0.199726
C       0.016767    0.141287    0.017650
C       1.080177   -0.475681   -0.940343
N       1.648809   -1.358706    0.139683
C       2.159843   -0.444252    1.174471
C       0.704869   -0.684918    1.118041
C      -1.395456   -0.350382   -0.246035
C      -1.992517   -0.407804   -1.584671
O      -1.585356   -1.599407   -0.905756
H       0.954963    2.061435    0.472307
H      -0.344792    2.154123   -0.724067
H      -0.730229    1.942337    0.989642
H       0.650268   -1.096820   -1.726314
H       1.809544    0.219994   -1.369201
H       2.718823   -0.957244    1.951545
H       2.579114    0.514645    0.877171
H       0.179249   -1.254508    1.879660
H      -2.075552   -0.193546    0.595469
H      -3.066970   -0.282883   -1.707848
H      -1.392099   -0.141093   -2.453731
