16

N      -0.112648    1.296144   -0.252431
C      -0.093500    0.037658   -0.132165
O       1.046017   -0.737648   -0.063338
C       0.689188   -2.122148    0.073050
C       1.310453   -2.699151    1.357305
C       2.825825   -2.618116    1.353429
O       3.549721   -3.564698    1.523495
C      -0.815245   -2.117632    0.069255
C      -1.250048   -0.863525   -0.042572
H       0.835760    1.671813   -0.293007
H       1.089861   -2.661031   -0.797612
H       0.932328   -2.117744    2.208220
H       1.017544   -3.745160    1.485402
H       3.232907   -1.599636    1.179502
H      -1.403158   -3.021818    0.153196
H      -2.266178   -0.499891   -0.073084
