15

N       0.191128   -1.140532    0.205406
C       0.108785    0.008171    0.105028
C      -0.009920    1.450242   -0.004676
C      -0.400612    2.260015    1.284955
C       0.867942    3.139354    1.123564
C       2.122290    2.559591    1.799568
O       2.396407    1.710491    0.654340
C       1.316030    2.276006   -0.089119
H      -0.671999    1.693246   -0.841185
H      -1.344499    2.795471    1.174441
H      -0.437171    1.670465    2.203151
H       0.743195    4.220150    1.103175
H       2.935248    3.278191    1.957341
H       1.964154    1.982023    2.717737
H       1.617840    2.634138   -1.076376
