14

N       0.254374    1.333102   -0.333036
C       0.077842   -0.038903   -0.142592
C      -1.049342   -0.777794    0.056656
O      -0.727382   -2.070013    0.291751
N       0.639299   -2.211616    0.233980
C       1.115990   -1.013899   -0.009269
C       2.603637   -0.806897   -0.087110
C       2.992864   -0.051747   -1.280241
N       3.254839    0.579222   -2.212411
H       0.952371    1.550412   -1.035512
H      -0.605980    1.818534   -0.549464
H      -2.101088   -0.541578    0.068915
H       2.958343   -0.254378    0.792073
H       3.100591   -1.781136   -0.085142
