23

C      -0.238886    1.603887   -0.051541
C      -0.009109    0.100248    0.008122
C       1.186030   -0.593995   -0.716056
C       2.133376   -0.056877    0.402302
C       3.460382   -0.780768    0.638655
C       3.223159   -2.207188    1.148953
C       2.046193   -2.844011    0.399512
C       0.920792   -1.830405    0.198425
C       0.840943   -0.570455    1.131640
H       0.665202    2.195403    0.111805
H      -0.646477    1.887454   -1.028463
H      -0.970930    1.906843    0.705650
H      -0.961370   -0.417300   -0.163516
H       1.389671   -0.612484   -1.790625
H       2.274795    1.025458    0.404791
H       4.028978   -0.795679   -0.301708
H       4.072214   -0.220861    1.355461
H       4.127957   -2.818745    1.070506
H       2.970901   -2.157975    2.215468
H       2.369246   -3.217812   -0.581968
H       1.674568   -3.715465    0.950897
H      -0.042551   -2.319313    0.015826
H       0.634114   -0.554714    2.204782
