19

C      -0.013268    1.510703   -0.087762
C       1.363821    2.213467   -0.106821
C       2.316509    1.902438    1.042273
O       1.858721    1.055016    2.100802
C       2.870659    0.546925    1.233182
C       2.528950   -0.534078    0.252456
O       1.793753   -1.680556    0.677938
C       1.168736   -0.778916   -0.252140
C      -0.028503    0.001035    0.252139
H      -0.662637    2.017808    0.633501
H      -0.467466    1.679554   -1.071122
H       1.883947    1.976467   -1.043835
H       1.189158    3.294578   -0.131513
H       2.921724    2.740344    1.389972
H       3.845849    0.441439    1.710394
H       3.368873   -0.766067   -0.407732
H       1.092552   -1.187868   -1.261165
H      -0.050071   -0.122958    1.333935
H      -0.945052   -0.446353   -0.148663
