15

C      -0.085058    1.514138    0.053327
C       0.132579    0.039454    0.011552
O      -0.805349   -0.823899    0.678748
C       0.595616   -0.948457    0.982235
C       1.294166   -1.783965   -0.135877
C       0.319660   -2.189793   -1.208775
C       0.805200   -0.765616   -1.157588
H       0.833103    2.047682   -0.214117
H      -0.864710    1.812340   -0.657307
H      -0.394762    1.826036    1.054225
H       0.889662   -0.864572    2.022167
H       2.283371   -2.209571   -0.034654
H       0.748497   -2.785814   -2.008228
H      -0.705249   -2.425373   -0.952384
H       1.365773   -0.297702   -1.956342
