20

C      -0.447649    1.654862   -0.385153
N      -0.422226    0.205578   -0.383196
C       0.711024   -0.510210   -0.645664
O       1.782532    0.005051   -0.908817
C       0.498061   -2.005196   -0.556974
O       1.369483   -2.830057   -1.319440
C       1.455338   -2.930349    0.106501
C       2.744111   -2.433854    0.721187
C       0.911399   -4.224116    0.677655
H      -0.742737    2.050544    0.593129
H       0.561446    1.995544   -0.619477
H      -1.139460    2.040089   -1.142393
H      -1.278786   -0.291572   -0.204502
H      -0.549085   -2.318610   -0.582941
H       3.069350   -1.511533    0.241893
H       2.612738   -2.258729    1.794607
H       3.522155   -3.195938    0.602137
H       1.655508   -5.021387    0.574895
H       0.685422   -4.114558    1.743581
H       0.003524   -4.535425    0.155036
