16

O       0.080356    1.422939    0.115002
C       0.058043    0.014587   -0.051623
C      -1.335227   -0.535406   -0.023654
C      -2.067896   -1.018918    1.219519
C      -1.918859   -1.928874    0.044863
O      -2.920455   -1.648927   -0.943793
C      -2.376231   -0.316385   -1.131926
C      -3.366574    0.746386   -0.945995
N      -4.137982    1.590727   -0.781854
H      -0.352202    1.630870    0.950400
H       0.523359   -0.169130   -1.026540
H       0.670528   -0.502253    0.704241
H      -1.411979   -1.232990    2.058595
H      -3.049384   -0.634050    1.480722
H      -1.470826   -2.914800    0.040821
H      -1.921561   -0.227347   -2.125019
