21

O      -0.022400    1.364418    0.291256
C      -0.125846   -0.048614    0.371449
C      -1.390911   -0.589705   -0.301838
C      -1.451285   -2.103540   -0.280589
C      -1.985612   -2.847908    0.923067
C      -2.755362   -2.867724   -0.372629
C      -4.077482   -2.172710   -0.484991
C      -5.186344   -2.453548    0.439269
O      -4.434437   -1.241575    0.540921
H      -0.781838    1.737858    0.749967
H       0.765684   -0.437459   -0.133853
H      -0.081207   -0.397333    1.415563
H      -2.271470   -0.176614    0.203024
H      -1.414468   -0.221129   -1.335219
H      -0.614608   -2.582560   -0.785354
H      -1.488262   -3.754485    1.248878
H      -2.409891   -2.246427    1.720294
H      -2.720408   -3.787498   -0.952204
H      -4.341394   -1.831787   -1.487985
H      -6.216683   -2.333918    0.108220
H      -5.031243   -3.163687    1.249756
