19

C       0.035269    1.528614   -0.017309
C      -0.069383   -0.013901    0.028709
C       0.622501   -0.499668    1.316515
O       0.313313   -1.470374    1.950401
C      -1.471157   -0.430778    0.011290
C      -2.630522   -0.743333   -0.024354
C       0.659487   -0.614746   -1.190923
C       2.104586   -1.058428   -1.163893
C       0.995760   -2.075802   -1.279141
H       1.085477    1.837226   -0.012367
H      -0.431374    1.908872   -0.928931
H      -0.471025    1.984064    0.838453
H       1.483940    0.137994    1.618870
H      -3.651479   -1.034759   -0.045378
H       0.328822   -0.146203   -2.113599
H       2.710749   -0.844739   -2.037223
H       2.657501   -1.020066   -0.231845
H       0.787449   -2.690123   -0.409894
H       0.843823   -2.576186   -2.228549
