16

O      -0.250557    1.223905   -0.344660
C      -0.003448   -0.104863    0.040531
C      -1.305559   -0.919181    0.106136
C      -1.482537   -1.471931   -1.324656
N      -0.108671   -1.579228   -1.785230
C       0.794671   -0.816986   -1.105828
O       1.969888   -0.674620   -1.350986
C       0.807505   -0.134483    1.318698
O       1.227328    0.877122    1.821361
H       0.344679    1.765287    0.199157
H      -1.191145   -1.753556    0.806348
H      -2.139461   -0.296328    0.430811
H      -1.979857   -2.446263   -1.331654
H      -2.066695   -0.784202   -1.948961
H       0.149001   -1.994573   -2.667195
H       1.003217   -1.134962    1.753708
