22

C      -0.221610    1.595693    0.093299
C       0.000011    0.078260   -0.004651
C      -1.363700   -0.621199    0.077526
C       0.706973   -0.311778   -1.345448
O       2.127736   -0.418926   -1.233351
C       2.566282   -0.851399    0.048581
C       1.486884   -1.688995    0.764887
N       0.817691   -0.386925    1.157526
C       2.205044    0.221882    1.086256
H       0.666490    2.170525   -0.180381
H      -1.025184    1.898454   -0.585078
H      -0.510984    1.869027    1.112466
H      -1.976365   -0.378304   -0.797592
H      -1.257788   -1.709363    0.119485
H      -1.897932   -0.299611    0.975617
H       0.302516   -1.267359   -1.708717
H       0.515608    0.434503   -2.122701
H       3.591098   -1.213782   -0.069556
H       0.886357   -2.393700    0.187080
H       1.867904   -2.190009    1.658912
H       2.701587    0.092728    2.053126
H       2.270933    1.263346    0.772882
