19

C      -0.190335    1.520496   -0.231739
C      -0.019699    0.019174   -0.029810
N       0.855388   -0.491664   -1.134379
C       1.622346   -1.333911   -0.567992
N       3.005034   -0.901643   -0.311794
C       2.373196   -0.771016    1.126708
C       3.319722   -0.536871    2.266776
C       0.812308   -0.405289    1.206261
C       1.312122   -1.774969    0.900050
H       0.785571    2.003156   -0.329891
H      -0.766148    1.724879   -1.138158
H      -0.718422    1.957241    0.623637
H      -1.009951   -0.460779    0.021436
H       3.615926   -1.717416   -0.180350
H       3.808545    0.437353    2.172297
H       2.786154   -0.563984    3.221179
H       4.099315   -1.307168    2.293600
H       0.481811   -0.140709    2.209361
H       1.089596   -2.745797    1.324910
