17

N      -0.538529    1.399001    0.081497
C      -0.316899    0.050432    0.016074
C      -1.180443   -1.019680   -0.048048
C      -2.679956   -1.021003   -0.087991
C      -3.293305   -0.450589   -1.367342
O      -3.045397    0.957880   -1.398284
C      -0.286989   -2.120283   -0.018601
N       0.976663   -1.782652    0.055421
O       0.952920   -0.366962    0.073969
H       0.270075    1.965821   -0.128064
H      -1.384605    1.674889   -0.404172
H      -3.039330   -2.049772    0.024461
H      -3.094091   -0.454772    0.757086
H      -2.851403   -0.941609   -2.245577
H      -4.376936   -0.640926   -1.374687
H      -3.317653    1.298177   -2.255229
H      -0.537419   -3.173567   -0.043607
