17

O       0.188617    1.224618    0.593291
C       0.039762   -0.127344    0.224379
C      -1.388832   -0.423506   -0.230724
C      -1.694574   -1.911906   -0.401180
O      -2.146920   -2.303389    0.895424
C      -2.754095   -1.181399    1.491539
O      -2.303348   -0.024008    0.808228
C      -4.276727   -1.258607    1.339296
O      -5.040814   -1.238376    2.264852
H      -0.529226    1.416362    1.209027
H       0.735529   -0.314055   -0.601352
H       0.303004   -0.812279    1.047636
H      -1.629921    0.169159   -1.117890
H      -2.465148   -2.086827   -1.162366
H      -0.814275   -2.513718   -0.642191
H      -2.491246   -1.152235    2.555818
H      -4.616731   -1.341203    0.282520
