18

N      -0.149043   -1.123550    0.387417
C      -0.105465    0.001849    0.128710
C      -0.025993    1.426130   -0.207212
C       1.397082    1.957608   -0.160864
C       1.993560    2.440319    1.145783
C       1.723867    3.431093    0.039075
C       2.863962    3.787660   -0.914784
C       3.219853    2.458794   -1.549898
C       2.405077    1.477729   -1.157645
H      -0.458457    1.567098   -1.205331
H      -0.659736    1.980696    0.493593
H       1.338374    2.486833    2.010539
H       3.016940    2.157999    1.369272
H       0.929794    4.152152    0.197767
H       2.546211    4.519603   -1.669377
H       3.717868    4.237127   -0.391866
H       4.062152    2.341476   -2.222096
H       2.459021    0.441206   -1.471114
