20

C       0.037323    1.532927    0.222613
C      -0.049918    0.042284   -0.000536
C      -1.223457   -0.599855    0.078809
C      -1.579085   -2.044966   -0.126134
C      -0.485227   -2.951216   -0.691436
C       0.811238   -2.913142    0.136072
C       1.741101   -1.777963   -0.238935
O       2.916778   -1.950692   -0.500672
N       1.217131   -0.499972   -0.286636
H       0.688641    1.767540    1.073325
H       0.460574    2.036935   -0.656176
H      -0.947669    1.960987    0.411570
H      -2.067002    0.029030    0.349758
H      -1.919988   -2.463050    0.834195
H      -2.459983   -2.093383   -0.781385
H      -0.862406   -3.978775   -0.713929
H      -0.265694   -2.681489   -1.731088
H       0.565566   -2.832962    1.203407
H       1.398100   -3.823543    0.003175
H       1.938838    0.172086   -0.509347
