15

O      -0.100024   -0.018883   -0.278352
C      -0.037909    1.161266   -0.032864
C       1.223410    1.932792    0.049406
C       1.676774    3.008662    1.090465
C       2.429314    3.701150   -0.019088
C       3.098309    2.590206    0.790803
C       2.675124    1.382988   -0.094057
O       2.772328    1.800312   -1.476250
C       1.818227    2.813302   -1.133893
H      -0.960119    1.762724    0.139017
H       1.216593    3.384819    1.992043
H       2.812859    4.710081   -0.074826
H       3.994399    2.741706    1.375330
H       3.007755    0.365943    0.097761
H       1.267832    3.233187   -1.973904
