18

C      -0.393074    1.417648   -0.042743
C       0.119991   -0.030123    0.052162
C       0.895031   -0.460992   -1.143178
C       2.191127   -0.798947   -1.388864
C       3.361488   -0.874558   -0.451373
O       3.013365   -1.304957    0.859257
N       2.336822   -1.102607   -2.743325
C       1.156337   -0.933618   -3.236331
O       0.220779   -0.550718   -2.340265
H       0.438586    2.122501   -0.135400
H      -1.043546    1.546933   -0.912407
H      -0.964656    1.680112    0.852251
H       0.774840   -0.151051    0.918623
H      -0.732943   -0.706565    0.195060
H       4.123515   -1.520391   -0.909179
H       3.819059    0.112185   -0.316035
H       2.625027   -2.182751    0.778544
H       0.829102   -1.065855   -4.255810
