16

O       0.138925    1.309676    0.062110
C      -0.040215   -0.106795    0.019547
C      -1.536248   -0.385478   -0.037061
C      -2.150708    0.090675   -1.360122
C      -1.352525   -0.365516   -2.546360
C      -0.059076   -0.711748   -2.476976
C       0.703886   -0.631043   -1.220504
O       1.894880   -0.875767   -1.157830
H       1.088320    1.477031    0.045854
H       0.412065   -0.581365    0.901280
H      -1.686810   -1.466677    0.065524
H      -2.026240    0.096709    0.814448
H      -3.185986   -0.256122   -1.451366
H      -2.197514    1.188376   -1.373670
H      -1.861378   -0.391656   -3.507831
H       0.499038   -1.032411   -3.351202
