14

N       0.046546   -1.061294    0.189167
C      -0.024555    0.088236    0.089672
C      -0.084095    1.514415   -0.029626
N      -1.173105    2.179520   -0.074350
C      -0.736033    3.582213   -0.033323
C      -0.162989    3.801017    1.415190
C       1.207055    3.413936    0.862249
C       0.744234    3.585190   -0.538875
N       1.150585    2.242487   -0.101771
H      -1.478974    4.275197   -0.417089
H      -0.163879    4.861893    1.674511
H      -0.612981    3.211192    2.217395
H       2.175607    3.578934    1.315636
H       1.196092    4.035187   -1.414756
