25

C      -0.844253    1.259512   -0.998195
C      -0.211952   -0.012042   -0.467830
C       1.280430   -0.287820   -0.535521
C       2.275573    0.683163   -1.139450
C       0.600735   -0.111635    0.809964
C       0.851242    0.990655    1.836287
C      -0.370662    1.113125    2.763077
C       2.113882    0.655035    2.648728
O       1.050309    2.239723    1.159949
H      -0.247383    2.143098   -0.779646
H      -0.986372    1.188938   -2.083043
H      -1.833542    1.413197   -0.551174
H      -0.834147   -0.886019   -0.653003
H       1.531282   -1.323108   -0.760237
H       2.054450    1.717805   -0.883727
H       3.289654    0.466800   -0.783109
H       2.287898    0.584287   -2.231303
H       0.451540   -1.049284    1.342320
H      -0.571687    0.172617    3.285859
H      -0.202614    1.885391    3.524041
H      -1.257459    1.385292    2.185353
H       2.984470    0.603565    1.990206
H       2.299745    1.423706    3.409198
H       2.012691   -0.304061    3.166557
H       1.206057    2.909587    1.833890
