24

C       0.151645    0.852497    1.688419
C      -0.510347   -0.532384    1.756576
C      -1.245671   -0.725551    3.091508
C      -1.451495   -0.732403    0.580113
C      -0.940369   -1.121846   -0.789540
C      -1.819960   -2.078864   -0.013643
C      -1.201446   -3.359125    0.517868
C      -3.251211   -2.253331   -0.489239
H       0.860092    0.993855    2.511669
H       0.692327    0.987231    0.746490
H      -0.599965    1.648112    1.757699
H       0.287951   -1.282960    1.696951
H      -2.060397    0.001369    3.194746
H      -1.682577   -1.726010    3.165878
H      -0.569287   -0.586574    3.941770
H      -2.266765   -0.008712    0.575132
H      -1.349391   -0.626657   -1.664621
H       0.114411   -1.368148   -0.876043
H      -1.211085   -4.136677   -0.255414
H      -0.163252   -3.223109    0.830343
H      -1.762063   -3.747064    1.376964
H      -3.312595   -2.999884   -1.290627
H      -3.902192   -2.590887    0.326452
H      -3.662362   -1.315745   -0.876644
