17

C      -0.236192    1.494716   -0.012533
C       0.017743    0.028854    0.082044
O      -0.808446   -0.838289   -0.764667
C      -0.997823   -1.711507    0.300249
O      -1.712138   -2.660155    0.333165
C      -0.071878   -0.970005    1.221335
C       1.253970   -0.700758    0.465150
C       1.964181   -1.745416   -0.371718
O       2.617774   -2.713274    0.431004
H       0.349893    2.028998    0.740187
H       0.053123    1.871377   -0.999149
H      -1.296174    1.715329    0.141932
H      -0.180751   -0.844199    2.288816
H       1.924583   -0.108654    1.086290
H       1.265238   -2.202143   -1.083390
H       2.753552   -1.260170   -0.955522
H       1.938229   -3.216116    0.892738
