19

C      -0.009249    1.464446    0.015584
N       0.014945    0.012468   -0.030505
C       0.686539   -0.497169   -1.219773
C       0.499358   -2.010501   -1.330890
C       1.044642   -2.724918   -0.083825
C       0.556153   -2.075248    1.199676
O       0.228059   -2.705657    2.176294
C       0.568314   -0.547834    1.198675
H       1.000569    1.914185    0.082603
H      -0.495765    1.855281   -0.883460
H      -0.583107    1.797810    0.885923
H       0.252210   -0.001784   -2.094461
H       1.769723   -0.250422   -1.216989
H      -0.569670   -2.223620   -1.439267
H       1.001734   -2.385034   -2.228632
H       0.795340   -3.788201   -0.059161
H       2.142145   -2.644023   -0.075243
H       1.623040   -0.229395    1.361465
H      -0.011276   -0.204729    2.059375
