16

C      -0.179064    1.581950   -0.099433
C       0.131030    0.089681    0.011974
N       0.799069   -0.424336   -1.175632
N       0.135306   -0.547001   -2.342191
C       1.070292   -1.009721   -3.162489
N       2.289627   -1.192037   -2.605832
C       2.093083   -0.812180   -1.344774
C       3.050177   -0.800371   -0.304010
C       3.851316   -0.783480    0.593545
H       0.740403    2.165063   -0.203169
H      -0.813577    1.774434   -0.967607
H      -0.703482    1.920142    0.798917
H       0.791311   -0.116207    0.857360
H      -0.787623   -0.488117    0.146111
H       0.856920   -1.225038   -4.198863
H       4.569601   -0.775011    1.376258
