23

C       1.077688   -1.978255   -0.886452
C       0.321309   -0.875260   -0.134874
C       0.744494   -0.651502    1.335368
C       0.494738   -1.895635    2.221957
C       0.721554   -1.632881    3.710783
O      -0.807885   -2.434696    1.998248
C       2.184900   -0.187724    1.430598
C       2.563375    1.220541    1.256313
O       2.546637    0.625070    2.554315
H       0.921635   -2.957871   -0.425530
H       0.722433   -2.044275   -1.919428
H       2.155363   -1.789006   -0.925148
H       0.439623    0.074326   -0.671057
H      -0.745723   -1.113814   -0.142784
H       0.127885    0.166685    1.736839
H       1.172757   -2.694916    1.897470
H       0.048429   -0.843626    4.069273
H       0.517206   -2.543351    4.280959
H       1.742112   -1.303381    3.917495
H      -1.443996   -1.827940    2.393455
H       2.939355   -0.937254    1.185294
H       3.548916    1.478175    0.870962
H       1.787323    1.963591    1.074806
