15

C      -0.005676    1.373566    0.082214
N       0.004939   -0.072691    0.055834
N      -0.066927   -0.766607   -1.071923
N      -0.029902   -2.026194   -0.726423
C       0.065092   -2.052195    0.636644
N       0.131216   -3.170487    1.433491
C       0.074409   -4.315566    0.853711
N       0.169890   -5.466223    1.555546
N       0.089322   -0.819886    1.151547
H       0.916254    1.744198    0.536159
H      -0.081969    1.716360   -0.949063
H      -0.860339    1.728746    0.662533
H      -0.032101   -4.443778   -0.226927
H      -0.016935   -6.350057    1.118593
H       0.187104   -5.418871    2.561841
