17

C      -0.118171    1.514624   -0.042260
C       0.080246    0.033776    0.043327
C       0.731546   -0.857890   -0.942924
C       1.457079   -1.965378   -0.216469
C       0.465642   -2.801724    0.492836
C      -0.758531   -1.874203    0.500803
C       0.094844   -0.868592    1.293297
N       1.303823   -1.801455    1.259266
N      -0.744704   -0.977939   -0.732939
H       0.752190    2.046640    0.358368
H      -0.258816    1.821899   -1.082631
H      -1.000094    1.832185    0.524204
H       1.043418   -0.513634   -1.921751
H       2.411516   -2.348701   -0.555320
H       0.522120   -3.870765    0.665066
H      -1.746084   -2.228100    0.784146
H      -0.138344   -0.478814    2.281080
