16

C      -0.041421    1.509620    0.005197
C       0.006553   -0.012489   -0.002062
C       1.354115   -0.691954   -0.224227
C       0.731194   -0.718131    1.139829
C      -1.153427   -0.658372   -0.544120
C      -2.146670   -1.176214   -1.007604
C      -3.255116   -1.769541   -1.525416
C      -4.240608   -2.294906   -1.986550
H       0.879331    1.916823    0.433834
H      -0.149153    1.902304   -1.010386
H      -0.885322    1.871440    0.600283
H       1.364060   -1.608825   -0.800947
H       2.202714   -0.038119   -0.394309
H       1.149029   -0.082424    1.913031
H       0.315266   -1.652896    1.495606
H      -5.105713   -2.758554   -2.390556
