19

C      -0.263627    1.527314   -0.138741
C       0.179549    0.081719    0.115812
C       0.771461   -0.549155   -1.128867
C       0.954401   -2.049699   -1.307824
C       0.510574   -3.023653   -0.280293
O       1.149616   -4.003482    0.019225
C      -0.080412   -1.270489   -2.146801
C      -1.488928   -1.452864   -1.941000
C      -2.676107   -1.584609   -1.796707
H       0.574235    2.144740   -0.481030
H      -1.044953    1.565987   -0.903954
H      -0.661348    1.980911    0.773763
H       0.927388    0.055644    0.917683
H      -0.677200   -0.501188    0.465839
H       1.581577    0.030259   -1.565809
H       1.845538   -2.372369   -1.835488
H      -0.464055   -2.804848    0.201915
H       0.203400   -1.148706   -3.188114
H      -3.722776   -1.712182   -1.669993
