16

C      -0.041117    1.525588    0.010693
C       0.087611    0.014451    0.001444
O       1.161194   -0.542195   -0.011859
C      -1.219766   -0.769471    0.009527
C      -1.001391   -2.280545   -0.000767
C      -2.304635   -3.046918    0.007619
F      -3.062450   -2.754389   -1.065269
F      -2.093177   -4.370747   -0.001615
F      -3.041614   -2.766152    1.098018
H       0.949071    1.982019    0.003742
H      -0.610535    1.865485   -0.861696
H      -0.593885    1.856134    0.897267
H      -1.802391   -0.468138    0.889215
H      -1.818886   -0.458629   -0.855656
H      -0.437185   -2.584568   -0.885677
H      -0.420290   -2.594072    0.869776
