16

C       0.039431    1.389648   -0.070515
O       0.046350   -0.035421    0.010068
C      -1.201671   -0.591595    0.043810
C      -2.194701   -0.529341    1.222970
N      -2.738005   -1.870447    0.774871
C      -2.787161   -1.832190   -0.729448
C      -1.511669   -2.142230    0.019186
C      -2.164541   -0.547733   -1.181523
O      -2.197295    0.107567   -2.185352
H       1.084081    1.701744   -0.110234
H      -0.482893    1.729687   -0.970142
H      -0.432282    1.835095    0.816637
H      -1.727866   -0.671187    2.200235
H      -2.927840    0.283471    1.256912
H      -3.477833   -2.502916   -1.221704
H      -0.912787   -3.041485    0.039173
