18

O      -0.126139    0.072661    0.260320
C       0.033142    1.243572    0.010359
C       1.352473    1.901681   -0.040319
C       2.649670    1.249820    0.418663
C       3.547062    2.485197    0.193883
C       3.226851    2.844539   -1.273597
C       1.713396    2.919685   -1.097382
N       1.395965    3.372686    0.262374
C       2.717231    3.560630    0.921351
H      -0.821557    1.920947   -0.205891
H       2.608587    0.923553    1.461448
H       2.922808    0.393074   -0.202860
H       4.597372    2.394571    0.463981
H       3.659105    3.799343   -1.589518
H       3.528118    2.069546   -1.984374
H       1.032455    3.207487   -1.889537
H       2.621542    3.392487    1.997401
H       3.067654    4.582322    0.747800
