12

O      -0.010734    0.017410   -0.169950
C      -0.063600    1.183269   -0.003671
C      -1.115002    2.242901    0.311484
N      -0.021749    3.211550    0.574441
C       1.046334    2.355730    0.007887
C       2.194347    2.141859    0.885418
N       3.078146    1.936789    1.599998
C       1.452057    2.691627   -1.357980
N       1.696542    2.980344   -2.450435
H      -1.745123    2.452215   -0.563679
H      -1.755294    2.036595    1.174273
H      -0.108729    4.119612    0.134002
