17

N       0.032459    1.465320   -0.114502
C       0.008125    0.065805   -0.105017
C      -1.041166   -0.835786   -0.175079
C      -0.502961   -2.168380   -0.254100
C       0.853825   -2.035620   -0.113699
C       2.228645   -2.343549   -0.668390
C       2.407566   -1.511706   -1.933925
C       2.490104   -0.843625   -0.586941
N       1.157534   -0.674878    0.019335
H       0.647787    1.849993    0.593295
H      -0.893330    1.856321    0.003434
H      -2.087859   -0.573501   -0.106130
H      -1.071262   -3.077211   -0.381614
H       2.893475   -3.153559   -0.401369
H       3.356397   -1.625652   -2.453357
H       1.552676   -1.324891   -2.575799
H       3.350053   -0.301662   -0.215660
