23

C      -0.029580    1.549988    0.013333
C       0.036169    0.020585    0.008202
C       0.877082   -0.564729   -1.150916
C       2.343832   -0.353427   -0.675080
C       2.278179   -0.255174    0.879728
C       0.798829   -0.590540    1.207031
C       0.604953   -2.093894    1.184589
C       0.491206   -2.758962    0.034534
C       0.536435   -2.061744   -1.303657
H       0.963076    2.010884    0.002238
H      -0.568984    1.915529   -0.867356
H      -0.555121    1.918914    0.901071
H      -0.987963   -0.368949   -0.022584
H       0.688391   -0.052515   -2.100041
H       2.986749   -1.174623   -1.004871
H       2.763027    0.561594   -1.103163
H       2.969633   -0.944555    1.370736
H       2.532074    0.752642    1.223707
H       0.483721   -0.175478    2.169360
H       0.593533   -2.623592    2.133820
H       0.358061   -3.838365    0.032012
H      -0.429958   -2.181827   -1.816359
H       1.274658   -2.549930   -1.955532
