12

O      -0.344188    0.029344    0.007019
C      -0.176520    1.215836    0.010775
N       1.088831    1.857445    0.001667
C       1.102659    3.279875    0.008429
O       0.102967    3.945732    0.021378
C       2.351315    1.192699   -0.013656
O       3.378469    1.833041   -0.019015
C       2.361269   -0.245586   -0.022586
C       2.566131   -1.430185   -0.031892
H      -0.978240    1.966394    0.021823
H       2.125541    3.673877    0.000366
H       2.699510   -2.485077   -0.039142
