15

O       0.009527   -0.006311    0.106796
C       0.018443    1.180447   -0.013657
O      -1.136620    1.924681   -0.126646
C      -0.884894    3.271147   -0.615620
C       0.608642    3.481858   -0.513453
C       1.250706    3.315166    0.841315
C       1.165094    2.143729   -0.084024
O       2.198544    2.119728   -1.066323
C       1.661686    3.359604   -1.626371
H      -1.236186    3.331992   -1.651054
H      -1.479539    3.950848   -0.000248
H       2.237010    3.729918    1.019316
H       0.578179    3.321456    1.692160
H       1.224424    3.180889   -2.614762
H       2.425274    4.141320   -1.686645
