11

C       0.038474   -3.749784   -0.018202
C       0.025479   -2.542236   -0.011462
C       0.009398   -1.185237   -0.003868
C       0.000726    0.026167    0.002838
C       0.017522    1.433503    0.010302
N      -1.071769    2.176816    0.027983
O      -0.637770    3.462809    0.029572
N       0.729406    3.542077    0.012883
C       1.147881    2.311187    0.000920
H       0.049701   -4.812060   -0.024132
H       2.198505    2.068981   -0.013560
