22

C       0.134797    1.491456    0.260895
C      -0.143975    0.014539   -0.049687
C       0.538392   -0.447349   -1.305414
C       0.150398   -0.068388   -2.749814
C       0.550949   -1.512422   -3.204737
C       1.570559   -1.681503   -4.315260
O       0.995117   -1.170572   -5.509624
C       0.984224   -1.812402   -1.759143
N       1.945568   -0.835240   -1.247042
H       1.208187    1.661996    0.389908
H      -0.214318    2.141412   -0.548897
H      -0.371210    1.803661    1.179439
H       0.200872   -0.610077    0.781513
H      -1.225356   -0.146802   -0.146775
H      -0.914615    0.131818   -2.887898
H       0.718094    0.758154   -3.190256
H      -0.345770   -2.082237   -3.466624
H       2.500881   -1.144110   -4.066729
H       1.831105   -2.747899   -4.418229
H       1.644751   -1.246203   -6.214596
H       0.927296   -2.772838   -1.257296
H       2.512992   -0.408470   -1.976871
