23

C      -0.217823    1.435556   -0.145511
C       1.333595    1.453194   -0.107116
C       1.297823    0.073673    0.618161
C      -0.166663   -0.094277    0.110746
C       2.316108   -0.970101    0.215896
C       3.775742   -0.987145    0.785724
C       3.206661   -1.563378    2.116111
C       2.473604   -2.331132    0.976377
C       3.862474   -2.458378    0.285960
H      -0.650072    1.974068    0.702962
H      -0.707612    1.781832   -1.058720
H       1.762286    1.359292   -1.110762
H       1.827070    2.284855    0.402318
H       1.287827    0.235610    1.699891
H      -0.898440   -0.526403    0.798112
H      -0.196092   -0.660707   -0.826371
H       2.284854   -1.094615   -0.875380
H       4.534587   -0.210280    0.674944
H       3.902642   -2.151930    2.720742
H       2.614734   -0.900205    2.748322
H       1.721117   -3.114195    1.086883
H       3.862445   -2.611980   -0.797008
H       4.596123   -3.098630    0.783289
