19

C      -0.289534    1.355292    0.256608
O      -0.173136   -0.050165    0.108656
C       0.567173   -0.495196   -1.033022
C       0.049062    0.055299   -2.366834
C       2.050584   -0.115531   -0.798213
O       2.760342    0.426391   -1.600979
C       0.533149   -1.958172   -1.008732
C       0.583567   -3.161465   -1.005973
C       0.615711   -4.615956   -1.001718
H       0.679852    1.869827    0.190536
H      -0.967428    1.797428   -0.484682
H      -0.704464    1.521949    1.253187
H       0.192455    1.136053   -2.429890
H       0.602807   -0.399875   -3.189594
H      -1.011553   -0.182268   -2.475593
H       2.397453   -0.396246    0.219928
H       1.074890   -5.002327   -1.917995
H       1.191462   -4.998024   -0.152025
H      -0.395396   -5.031846   -0.934546
