15

C       0.011812    1.533383   -0.068213
C      -0.018393    0.026672    0.080266
O      -0.057262   -0.535515    1.152290
C       0.002645   -0.723814   -1.165722
C       0.030346   -1.358341   -2.192676
C       0.038894   -2.119292   -3.445018
O       0.070004   -3.504359   -3.267088
C      -1.198658   -1.705715   -4.259417
O      -2.000460   -2.526811   -4.616947
H       0.913797    1.840355   -0.608693
H      -0.846819    1.871467   -0.658508
H      -0.008293    1.996522    0.919180
H       0.916860   -1.795661   -4.032762
H      -0.780426   -3.830038   -3.604553
H      -1.300109   -0.626841   -4.480591
