21

C      -0.163897    1.587398   -0.059869
C       0.033721    0.072241   -0.017350
C       0.869935   -0.515618   -1.191295
C       1.616871   -1.691291   -0.562131
C       2.595965   -1.421669    0.570438
C       1.182539   -1.920972    0.858236
C       0.768117   -0.465141    1.224241
C       2.291134   -0.088471    1.251594
O       2.835547    0.015735    2.551972
H       0.792543    2.120816   -0.037453
H      -0.688469    1.890035   -0.972425
H      -0.756994    1.933937    0.793188
H      -0.955434   -0.405483   -0.037141
H       0.229987   -0.847666   -2.014788
H       1.557351    0.231857   -1.605151
H       1.860975   -2.554067   -1.172998
H       3.541872   -1.948912    0.638514
H       0.827589   -2.855836    1.271743
H       0.261992   -0.284314    2.174243
H       2.591311    0.832710    0.742449
H       2.655129   -0.815715    3.006277
