18

C      -0.127518    1.579143   -0.014137
C       0.115160    0.074471    0.015815
C       0.907681   -0.476763   -1.202311
N       1.784648   -1.469539   -0.574730
C       2.943903   -1.969306   -1.285142
C       1.776479   -1.159915    0.774455
N       0.897867   -0.332225    1.203740
C       2.713458   -1.807225    1.656348
N       3.482570   -2.335882    2.337905
H       0.821755    2.121570   -0.067268
H      -0.733589    1.857124   -0.882727
H      -0.651603    1.896991    0.890527
H      -0.853550   -0.439918    0.086964
H       0.272101   -0.934686   -1.965262
H       1.509256    0.311710   -1.684726
H       3.604546   -1.156434   -1.624852
H       3.516064   -2.635327   -0.636027
H       2.622857   -2.539262   -2.162087
