17

O       0.333165    1.115819    0.135999
C      -0.002451   -0.244208    0.378113
C      -1.463557   -0.511208    0.076160
C      -1.846554   -0.934464   -1.336248
C      -1.913995   -1.938072   -0.236357
C      -2.480303    0.330323    0.773964
O      -3.623309    0.467619    0.387063
C      -2.157775    1.010800    2.114082
O      -1.366387    0.597954    2.919005
H       0.164480    1.297513   -0.795109
H       0.619135   -0.929960   -0.218165
H       0.216735   -0.417191    1.432180
H      -2.781254   -0.539779   -1.716008
H      -1.038363   -1.013228   -2.055931
H      -1.152950   -2.708795   -0.177182
H      -2.892349   -2.228701    0.128053
H      -2.831787    1.871089    2.308983
