15

N       0.307540    1.227003    0.534776
C       0.009303   -0.073145    0.101727
C      -0.970335   -0.619445   -0.689746
N      -0.753254   -1.970995   -0.864118
C       0.334025   -2.242743   -0.188418
C       0.977436   -3.598694   -0.103895
C       1.700336   -3.801362    1.151770
N       2.288350   -3.913502    2.140108
N       0.847937   -1.123737    0.410426
H       0.179854    1.348654    1.535225
H      -0.273790    1.905862    0.059418
H      -1.816240   -0.119565   -1.136415
H       0.195826   -4.356544   -0.210305
H       1.682876   -3.756544   -0.931168
H       1.682883   -1.065015    0.971641
