16

O      -0.567696    0.808546   -0.762781
C       0.113568    1.125639    0.180236
C       1.381785    1.908277    0.076440
C       2.718706    1.371641    0.644434
C       3.035535    2.869397    0.773920
C       2.929194    3.524430   -0.610939
C       1.553290    4.029829   -0.296433
C       1.676545    2.795466   -1.137348
N       1.530746    3.174580    0.965507
H      -0.161885    0.848312    1.222120
H       2.574830    0.907162    1.624031
H       3.338907    0.744135    0.001528
H       3.739069    3.264050    1.506652
H       3.692169    3.932774   -1.259735
H       1.048617    4.977794   -0.427790
H       1.463362    2.634390   -2.184054
