13

N       0.200246    1.429520    0.005558
C       0.019849    0.029201   -0.018771
C      -1.095104   -0.783610   -0.029672
O      -2.373697   -0.291848   -0.016326
C      -0.662926   -2.136880   -0.055500
C       0.717974   -2.114926   -0.059708
N       1.116845   -0.811783   -0.037574
H      -0.225673    1.842826    0.829781
H      -0.236647    1.872227   -0.797347
H      -2.982244   -1.035506   -0.030224
H      -1.286431   -3.018749   -0.069205
H       1.431674   -2.922169   -0.076576
H       2.061899   -0.470001   -0.034944
