18

N      -0.130740    1.166987    0.849743
C      -0.097074    0.087710    0.215794
C      -1.108138   -0.986995   -0.123251
C       0.084441   -1.662425   -0.834699
C       0.028313   -1.811456   -2.342559
C       1.402747   -2.147273   -2.947262
C       1.373355   -2.121981   -4.458333
O       1.696680   -3.035765   -5.171206
O       0.950386   -0.543621   -0.430584
H       0.784966    1.619205    0.865575
H      -1.519021   -1.515326    0.738033
H      -1.922189   -0.661143   -0.773850
H       0.439067   -2.580838   -0.356123
H      -0.695643   -2.598715   -2.587401
H      -0.353030   -0.878056   -2.776062
H       2.119528   -1.384876   -2.612275
H       1.761586   -3.127081   -2.619125
H       1.012641   -1.158142   -4.890297
