21

C      -0.013241    1.493981    0.149777
C       1.365140    2.167508   -0.015624
C       1.878240    2.364645   -1.456348
C       1.837984    1.074962   -2.323537
O       1.887890   -0.099849   -1.510109
C       0.545951   -0.564702   -1.317596
C      -0.008630   -0.040367    0.020385
C      -0.195880   -0.023378   -2.517009
C       0.539253    0.923972   -3.085521
H      -0.395215    1.736575    1.148550
H      -0.726426    1.929530   -0.560339
H       1.330153    3.157695    0.454505
H       2.106918    1.587647    0.544588
H       1.294885    3.146250   -1.959399
H       2.907609    2.737398   -1.402844
H       2.711012    1.049921   -2.987422
H       0.577431   -1.661550   -1.294364
H       0.606132   -0.469069    0.821352
H      -1.026339   -0.427699    0.163956
H      -1.195460   -0.336205   -2.791047
H       0.272675    1.550172   -3.927816
