18

C      -0.206189    1.539282    0.077243
C       0.067450    0.038997   -0.010835
N       0.940196   -0.326256   -1.120464
C       1.860332   -1.315898   -0.838549
O       2.498148   -1.941820   -1.655027
C       1.900454   -1.441151    0.661545
C       2.230508   -0.152467    1.410196
C       0.804346   -0.558557    1.196819
O       0.017273   -0.971666    2.267035
H       0.724397    2.104586    0.179318
H      -0.728286    1.898442   -0.815399
H      -0.845626    1.755135    0.939839
H      -0.893160   -0.493536   -0.080970
H       0.682249   -0.160716   -2.081129
H       2.165859   -2.393581    1.098728
H       2.616223   -0.290108    2.414649
H       2.656427    0.679552    0.859092
H      -0.087072   -0.229039    2.871367
