18

C       0.140078    1.693537   -0.006733
C       0.014023    0.166420    0.042567
C       0.649912   -0.522867   -1.178052
C       2.072426   -0.868944   -0.728434
O       3.009552   -1.112786   -1.437904
C       2.100025   -0.843434    0.802414
N       0.761218   -0.417924    1.170427
C       0.212510   -0.741123    2.370412
O       0.803199   -1.297817    3.272250
H       1.184314    2.000515   -0.130376
H      -0.433136    2.097527   -0.847284
H      -0.237922    2.142638    0.915864
H      -1.040398   -0.104321    0.151520
H       0.139135   -1.465776   -1.408300
H       0.660410    0.082982   -2.085608
H       2.322698   -1.830351    1.220904
H       2.885237   -0.160411    1.150527
H      -0.852354   -0.439129    2.434947
