16

O       0.158362    1.392185    0.254233
C       0.095517    0.021409    0.089840
C       1.290366   -0.723746    0.746002
C       1.145689   -2.213314    0.703631
C       1.555011   -1.498973   -0.554978
C       0.356958   -0.790805   -1.209923
O      -0.951249   -1.452466   -1.042197
C      -1.261409   -0.669537    0.057565
N      -2.335281   -0.525691    0.689528
H      -0.724212    1.752607    0.110804
H       1.982459   -0.206814    1.397921
H       1.947662   -2.759737    1.189295
H       0.174638   -2.691162    0.777469
H       2.491463   -1.701845   -1.058136
H       0.470147   -0.356654   -2.201134
H      -3.080124   -1.115439    0.313186
