20

C       0.021734    1.605933   -0.266179
C      -0.059301    0.097799   -0.028536
C       0.830375   -0.760706   -0.992576
C       1.700715   -1.060414    0.247200
O       2.733254   -1.633332    0.467316
N       0.827873   -0.371077    1.060279
C      -1.501250   -0.360048    0.101049
C      -1.867310   -1.674606    0.734662
C      -2.201535   -0.380281    1.436024
H       1.060631    1.930445   -0.377412
H      -0.524592    1.882729   -1.173746
H      -0.424733    2.154969    0.569726
H       0.337121   -1.634918   -1.420252
H       1.350525   -0.204245   -1.774458
H       0.961470   -0.020764    1.998772
H      -2.110963   -0.054532   -0.745667
H      -2.674663   -2.248349    0.293793
H      -1.065675   -2.270943    1.155653
H      -1.620401   -0.133688    2.318857
H      -3.236444   -0.060738    1.483466
