20

C       0.127983    1.626502    0.115349
C       0.134049    0.096158    0.051310
C       0.741921   -0.462671   -1.247580
C       2.296929   -0.388398   -1.293843
O       2.411315   -1.785636   -0.985104
C       1.013770   -2.012033   -1.268090
C       0.343365   -2.941178   -0.281662
C       0.043188    0.042253   -2.422700
N      -0.515770    0.432240   -3.357057
H       1.140109    2.037090    0.034498
H      -0.472976    2.054901   -0.691986
H      -0.291053    1.966410    1.066453
H       0.713207   -0.308989    0.887541
H      -0.888239   -0.283288    0.158352
H       2.704180   -0.143490   -2.282294
H       2.766410    0.244448   -0.533844
H       0.891544   -2.401784   -2.288641
H       0.433281   -2.583863    0.746334
H      -0.716751   -3.060163   -0.527818
H       0.816270   -3.926356   -0.341514
