19

C       0.009081    1.570832    0.004583
C       0.068668    0.042809    0.010229
C       0.831961   -0.579215   -1.151155
O       2.262932   -0.563201   -0.952308
C       1.530117   -1.785052   -0.695673
C       1.214157   -2.003342    0.778480
O       2.262769   -2.524628    1.552811
C       0.765020   -0.586175    1.248228
O       1.906534    0.142299    1.688263
H       1.010124    2.007798    0.026862
H      -0.501768    1.934187   -0.892961
H      -0.534820    1.943744    0.877458
H      -0.956206   -0.353091   -0.030459
H       0.512691   -0.430717   -2.179755
H       1.788579   -2.615363   -1.346298
H       0.370165   -2.705134    0.837243
H       2.704520   -1.750524    1.932704
H       0.097849   -0.637687    2.111370
H       2.453078    0.259744    0.895747
