19

C       0.097644    1.448276    0.008974
C       0.037321   -0.003212    0.001462
C      -0.033565   -1.208168   -0.004325
C      -0.105339   -2.656903   -0.011477
O      -1.165805   -3.246000   -0.004873
C       1.238512   -3.371189   -0.027721
C       1.117454   -4.893053   -0.035177
C       2.475595   -5.580919   -0.051224
O       2.251715   -6.981994   -0.056923
H       1.131220    1.809286    0.000719
H      -0.413717    1.861766   -0.867115
H      -0.396158    1.851778    0.899671
H       1.795384   -3.005720   -0.902301
H       1.811158   -3.015555    0.840714
H       0.556495   -5.227407    0.843009
H       0.540782   -5.217602   -0.906841
H       3.045426   -5.264578   -0.941335
H       3.061413   -5.274355    0.831910
H       3.105731   -7.423563   -0.067718
