17

C       0.226319    1.479247   -0.024052
O       1.212319    0.446679    0.095668
C      -0.162775    0.071839   -0.030336
C      -0.812342   -0.673466    1.123919
O      -0.864014   -2.039643    0.705046
C      -0.989346   -2.082852   -0.702198
C      -2.372628   -1.723841   -1.288109
O      -1.896609   -0.422951   -1.712027
C      -0.551493   -0.708701   -1.266027
H       0.065348    2.076247    0.872910
H       0.239598    2.039766   -0.957373
H      -0.221639   -0.614241    2.040504
H      -1.822745   -0.284640    1.318409
H      -0.519663   -2.999005   -1.060086
H      -2.692549   -2.334370   -2.140926
H      -3.186209   -1.658466   -0.556998
H       0.190177   -0.642990   -2.066184
