21

C      -0.170806    1.555926    0.029551
C       0.042295    0.036706   -0.002850
C       0.795902   -0.418474   -1.263679
O       2.181007   -0.134439   -1.182908
C       2.858410   -0.954992   -0.244508
C       4.298762   -0.464481   -0.170795
C       2.178363   -0.934228    1.113408
O       1.911571    0.355561    1.659468
C       0.796582   -0.442564    1.234171
H       0.792996    2.068037   -0.009733
H      -0.776441    1.878980   -0.823218
H      -0.681672    1.866468    0.946315
H      -0.935438   -0.462267   -0.003930
H       0.643038   -1.499282   -1.423260
H       0.425869    0.107668   -2.149346
H       2.837989   -2.003425   -0.597415
H       4.322577    0.551850    0.230486
H       4.895115   -1.113551    0.477481
H       4.744865   -0.460366   -1.168442
H       2.553642   -1.668260    1.828680
H       0.186047   -0.802378    2.062634
