23

C      -0.149388    1.483741    0.238432
C      -0.038323   -0.020926    0.037561
C       1.079810   -0.596549   -0.917586
C       1.304600   -1.766530    0.103012
C       2.625806   -2.130039    0.808715
C       2.281637   -1.938437    2.320447
C       1.164673   -0.887307    2.312319
C       0.882914   -0.021593    3.499635
C       0.603784   -0.890121    1.103458
H       0.808856    1.906627    0.557560
H      -0.446972    1.981211   -0.691320
H      -0.897134    1.731854    0.999477
H      -1.009310   -0.429414   -0.272432
H       0.776021   -0.857857   -1.934964
H       1.942018    0.076516   -0.956153
H       0.730301   -2.652778   -0.196419
H       2.995318   -3.134155    0.579662
H       3.410126   -1.418383    0.525841
H       1.951508   -2.881421    2.780845
H       3.147760   -1.602721    2.903948
H       0.547049   -0.620866    4.356603
H       1.784881    0.509839    3.830863
H       0.107425    0.719366    3.288756
