20

C      -0.213985    1.510905    0.013224
C       0.023477    0.000780   -0.034959
N       0.939459   -0.349329   -1.135549
C       1.931663   -0.950901   -0.617486
C       3.124634   -1.480096   -1.336911
O       1.942628   -1.149514    0.731637
C       0.710249   -0.598876    1.208137
C       0.730771   -0.031016    2.591086
C       0.026867   -1.348817    2.305341
H       0.717452    2.044902    0.224302
H      -0.595524    1.853689   -0.951991
H      -0.945951    1.772895    0.784217
H      -0.937904   -0.498359   -0.213164
H       3.034732   -1.265798   -2.401224
H       4.038092   -1.022146   -0.944543
H       3.211343   -2.560624   -1.185048
H       1.672054   -0.076717    3.127287
H       0.130693    0.847497    2.800478
H      -1.058728   -1.368109    2.306521
H       0.500862   -2.256970    2.660587
