16

O      -0.075211    0.062512   -0.430168
C      -0.091798    1.213072   -0.109936
C      -1.181230    2.280439    0.152033
C      -0.013233    3.288054    0.058692
N       0.977129    2.146068    0.040858
C       1.613240    2.629331   -1.231187
C       0.514282    3.705925   -1.325573
C      -0.191405    4.248664   -2.487721
O       0.735062    5.036522   -1.722266
H      -1.949128    2.327075   -0.622695
H      -1.661640    2.221691    1.131700
H       0.098636    4.032769    0.848510
H       2.610634    3.041206   -1.057535
H       1.656067    1.869672   -2.015864
H       0.138955    3.984411   -3.490979
H      -1.236167    4.543195   -2.400111
