16

C       0.000167    1.521720    0.032240
C      -0.075233    0.033471    0.088688
O       1.073655   -0.744847   -0.259966
C       0.517058   -0.938743    1.062057
C       1.342581   -0.726780    2.198713
C       2.024653   -0.574578    3.177315
C      -0.705494   -1.832588    0.918632
N      -1.874805   -1.001253    1.304225
C      -1.292679   -0.872242   -0.056257
H       0.937203    1.870864    0.472480
H      -0.046747    1.874312   -1.003986
H      -0.837752    1.957093    0.584047
H       2.629137   -0.434593    4.039104
H      -0.742077   -2.913941    0.919889
H      -2.704290   -1.592489    1.228524
H      -1.864789   -1.085376   -0.950084
