15

N      -0.370990   -1.086418   -0.823623
C      -0.226436   -0.032325   -0.374380
C      -0.003830    1.322755    0.168828
N      -0.563517    1.393345    1.517044
C       0.113963    1.918358    2.447409
O       1.365086    2.425682    2.440886
C       2.106442    2.322910    1.246070
C       2.532593    0.965093    0.770968
C       1.459810    1.732520    0.028316
H      -0.601822    2.004250   -0.451126
H      -0.312391    2.010608    3.443687
H       2.775717    3.169613    1.157860
H       3.507210    0.861860    0.308925
H       2.216431    0.112516    1.363345
H       1.721746    2.157770   -0.934340
