18

C      -0.017611    1.500652   -0.045516
C       1.404107    2.091554    0.031475
C       2.113777    1.759289    1.362776
C       1.882001    0.319664    1.688869
C       0.943543   -0.442434    1.080343
C      -0.021085   -0.044757    0.024019
O       1.012761   -1.704615    1.609178
C       2.009464   -1.618290    2.526944
N       2.563804   -0.454962    2.626047
H      -0.614517    1.892976    0.787205
H      -0.509781    1.825838   -0.967492
H       2.000943    1.694198   -0.799574
H       1.360498    3.176922   -0.105033
H       3.186295    1.970526    1.291246
H       1.730208    2.398544    2.169833
H      -1.028099   -0.419003    0.241913
H       0.265111   -0.473677   -0.946618
H       2.237410   -2.518586    3.075723
