27

C       0.189213    1.588350   -0.120062
C       0.292108    0.060480   -0.126315
C       0.402081   -0.531267    1.287384
C       0.582583   -2.043712    1.325688
C      -0.587432   -2.837227    0.766663
C       1.969408   -2.609764    1.097057
C       1.338450   -2.692507    2.470288
C       1.925374   -1.953610    3.657365
C       3.012870   -2.770330    4.366681
H       1.066715    2.043069    0.353663
H       0.114617    1.988965   -1.135979
H      -0.694010    1.924141    0.435146
H      -0.581786   -0.356921   -0.640122
H       1.167104   -0.249186   -0.712089
H       1.241211   -0.044332    1.796225
H      -0.496689   -0.259684    1.860352
H      -0.752792   -2.627913   -0.295709
H      -0.414572   -3.913617    0.863526
H      -1.516121   -2.600079    1.300257
H       2.076570   -3.514654    0.507194
H       2.784854   -1.902917    0.968737
H       0.961248   -3.678421    2.739422
H       2.350212   -0.995720    3.338485
H       1.128111   -1.710932    4.372892
H       3.837485   -3.001263    3.684157
H       3.424044   -2.226542    5.223057
H       2.614210   -3.721749    4.735941
