17

C      -0.073422    1.498547   -0.037580
C       0.066006    0.007838    0.009750
C       1.351960   -0.714520   -0.270411
C       0.739216   -0.772159    1.129100
O       1.415838   -0.239209    2.208385
C      -0.186343   -1.895476    1.401467
O      -0.183880   -2.551887    2.417542
C      -1.203865   -1.930848    0.264129
O      -1.103856   -0.681900   -0.407742
H       0.823582    1.974329    0.366038
H      -0.217312    1.838934   -1.067860
H      -0.934818    1.819281    0.555070
H       1.358508   -1.593272   -0.907175
H       2.250573   -0.107364   -0.306508
H       1.252767   -0.851635    2.941898
H      -0.998978   -2.772798   -0.413430
H      -2.215302   -2.055518    0.662820
