25

C      -0.087090    1.460929   -0.121470
C       0.074495   -0.042928    0.032988
C      -1.060065   -0.802725   -0.635705
C       1.467119   -0.634115   -0.032558
C       0.722893   -0.627336    1.288703
C       1.214060    0.312809    2.381706
C       0.191042   -1.912602    1.879094
C       0.374793   -3.284399    1.280556
C       1.130772   -2.905082    2.526533
H       0.768189    2.025242    0.255158
H      -0.203189    1.717924   -1.181285
H      -0.982284    1.821530    0.399966
H      -1.111566   -0.547928   -1.701195
H      -0.945847   -1.884220   -0.555017
H      -2.026706   -0.535007   -0.191125
H       1.599891   -1.570696   -0.564442
H       2.307634    0.046169   -0.135147
H       1.668953    1.222981    1.986105
H       0.392130    0.611512    3.043751
H       1.965620   -0.188345    3.000975
H      -0.750583   -1.775983    2.408769
H      -0.447135   -3.987569    1.364913
H       0.943538   -3.384170    0.363117
H       2.195256   -2.722668    2.420184
H       0.847626   -3.357027    3.470744
