17

O      -0.009033    1.430599   -0.040763
C       0.006340    0.033971    0.041783
C       0.233803   -0.697514    1.391909
C      -0.700053   -1.793588    0.795725
C      -1.363010   -0.663909   -0.049825
C       0.113011   -2.686269   -0.117049
O       0.095562   -3.884290   -0.116981
O       0.923759   -2.022172   -0.992596
C       0.932730   -0.585619   -1.009343
H       0.885541    1.762970    0.096914
H       1.252288   -0.977962    1.673894
H      -0.255791   -0.168349    2.212250
H      -1.311664   -2.401209    1.458008
H      -2.114537   -0.127273    0.532694
H      -1.755843   -0.909570   -1.039286
H       0.629175   -0.259076   -2.009865
H       1.970347   -0.268242   -0.840271
