17

N       0.355210    1.074810   -0.673093
C       0.077469    0.151303    0.293936
O       0.901122   -0.198353    1.117309
C      -1.344275   -0.351781    0.266566
N      -1.569486   -1.719959    0.756469
C      -2.125387   -0.606896    1.524152
C      -1.568285   -0.388348    2.916836
C      -2.078323   -1.438739    3.879146
O      -2.590355   -1.206541    4.944655
H       1.296168    1.428797   -0.729658
H      -0.286900    1.295932   -1.413186
H      -1.935549   -0.022185   -0.586294
H      -2.283589   -2.176221    0.195752
H      -3.195454   -0.423186    1.429085
H      -0.476930   -0.476046    2.862426
H      -1.831488    0.602447    3.298112
H      -1.935512   -2.483624    3.522810
