19

N      -0.072295    1.247338   -0.428111
C       0.054005   -0.023188    0.051700
O       1.132523   -0.506913    0.337230
C      -1.263742   -0.776611    0.237710
C      -1.086981   -2.285577    0.055156
C      -2.327421   -3.073198    0.485992
N      -2.165206   -4.507474    0.311483
C      -2.899097   -5.238940   -0.569307
O      -3.789183   -4.808141   -1.272057
H       0.762019    1.797016   -0.552472
H      -0.956136    1.636215   -0.703937
H      -1.610556   -0.562790    1.258585
H      -2.034581   -0.386389   -0.437218
H      -0.863597   -2.511956   -0.993434
H      -0.211485   -2.596830    0.634609
H      -2.564209   -2.854371    1.536156
H      -3.198414   -2.796454   -0.113213
H      -1.427547   -4.975103    0.814655
H      -2.591165   -6.303652   -0.571058
