15

O       0.502596    1.423321   -1.570812
C       0.352219    1.763123   -0.416938
N       1.295095    1.679802    0.565395
C       2.601994    1.121156    0.392958
C       3.445867    1.419724   -0.802909
N       3.255656    2.779051   -1.296240
C       3.564507    3.344471   -0.047749
O       3.558383    4.473792    0.348237
C       3.868580    1.969531    0.553406
H      -0.589593    2.202114   -0.033522
H       1.051213    2.035808    1.477325
H       2.718056    0.107895    0.777143
H       3.910463    0.661014   -1.417018
H       2.444480    3.037333   -1.847655
H       4.677065    1.689689    1.213158
