19

C      -0.166253    1.514675   -0.000673
C       0.029887    0.003664   -0.029147
O       0.790398   -0.302089   -1.189601
C       0.734473   -0.493700    1.227006
C      -0.041861   -1.187033    2.320313
C       0.884297   -1.985855    1.416273
O       0.303554   -2.746309    0.380102
C       2.100945   -2.530296    1.957462
C       3.101038   -3.020162    2.412589
H       0.803123    2.021491    0.040000
H      -0.684116    1.842506   -0.905755
H      -0.755071    1.813830    0.871399
H      -0.954311   -0.484346   -0.087086
H       0.854846   -1.264034   -1.223870
H       1.594900    0.096221    1.528066
H       0.250153   -1.044796    3.354101
H      -1.103281   -1.338941    2.151801
H       0.129607   -3.632339    0.716157
H       3.994175   -3.440691    2.804018
