17

O      -0.128626    1.423696   -0.070028
C       0.025437    0.054585   -0.025877
C      -0.082181   -0.840453    1.170227
C       1.115857   -1.777013    1.269879
C       1.438449   -2.043241   -0.202214
O       0.417598   -2.936535   -0.732095
C      -0.345570   -1.785998   -1.146648
C      -1.054621   -1.016964   -0.010810
C       0.851364   -0.825609   -1.006598
H       0.564867    1.827620    0.463669
H      -0.543915   -0.436079    2.064985
H       1.947612   -1.281824    1.787658
H       0.902755   -2.720818    1.779794
H       2.445130   -2.410233   -0.412992
H      -0.915814   -1.945157   -2.063328
H      -2.121957   -0.922143    0.146549
H       1.387149   -0.398361   -1.849691
