23

O      -0.301193   -0.028139   -0.225558
C      -0.057010    1.141508   -0.077732
C       1.311327    1.769487   -0.199908
C       1.334958    2.892375   -1.252264
C       2.683741    3.619218   -1.321423
C       2.715748    4.729056   -2.363578
C       1.874443    6.020004   -2.133925
C       3.048230    6.844035   -2.727917
C       3.979627    5.629573   -2.468619
H      -0.870594    1.868179    0.161344
H       1.569173    2.194111    0.781766
H       2.037901    0.984959   -0.431430
H       1.096523    2.468861   -2.236392
H       0.540693    3.617292   -1.029467
H       2.918622    4.042929   -0.334500
H       3.478028    2.891592   -1.538342
H       2.481021    4.311432   -3.350827
H       0.898589    6.093451   -2.620433
H       1.744235    6.220306   -1.064454
H       2.911738    7.028223   -3.797389
H       3.300214    7.790651   -2.244457
H       4.487063    5.711163   -1.501328
H       4.723658    5.378880   -3.228930
