13

N       0.042451    1.361673    0.124005
C      -0.049421    0.024421    0.046327
C      -1.146327   -0.821831    0.025978
C      -0.638883   -2.165223   -0.009462
C       0.701749   -2.047462   -0.013313
O       1.075108   -0.703857    0.021410
N      -2.484246   -0.394323    0.011508
O      -3.370773   -1.244406   -0.020349
O      -2.696502    0.833710    0.028045
H       0.909591    1.805750   -0.128000
H      -0.835014    1.847380   -0.004355
H      -1.227754   -3.066233   -0.032068
H       1.522590   -2.741798   -0.035813
