14

N       0.148946    1.413528    0.130715
C       0.002006    0.052466    0.047931
N      -1.170233   -0.541745    0.033468
O      -0.810718   -1.925728    0.019048
C       0.512533   -1.950497    0.012957
N       1.202211   -3.131535   -0.004004
C       0.728516   -4.436508   -0.036036
N      -0.500830   -4.736408   -0.062016
N       1.094369   -0.780531    0.028826
H       1.009403    1.757188   -0.267432
H      -0.667605    1.941446   -0.138993
H       2.200939   -2.998835    0.010232
H       1.568546   -5.140717   -0.035804
H      -0.616344   -5.747204   -0.082451
