13

O      -0.076361    0.019398    0.541301
C      -0.031537    1.186290    0.277136
O      -1.136474    2.044253    0.211347
C      -0.638679    3.260885   -0.112907
N       0.633983    3.306415   -0.261519
N       1.027433    2.006836   -0.011333
C       2.412101    1.585535   -0.119038
C       2.908522    1.559448   -1.492344
C       3.329723    1.536939   -2.615980
H      -1.325902    4.084425   -0.218060
H       3.027863    2.250534    0.496039
H       2.449086    0.584897    0.323728
H       3.698681    1.515558   -3.611848
