21

C      -0.009666    1.621523    0.613516
C      -0.070265    0.229373   -0.028292
C       0.858946   -0.754060    0.709430
C      -1.475687   -0.307765   -0.105361
C      -2.606093    0.199161    0.455530
O      -3.688600   -0.580237    0.168261
C      -3.245477   -1.616469   -0.599200
C      -4.263193   -2.606301   -1.040358
C      -1.905540   -1.498454   -0.794894
H       1.016217    2.002336    0.612563
H      -0.638385    2.337495    0.075518
H      -0.348721    1.588404    1.655267
H       0.304767    0.319845   -1.058109
H       0.843611   -1.744541    0.245221
H       1.892586   -0.391913    0.701804
H       0.545581   -0.870298    1.752583
H      -2.809068    1.068879    1.057286
H      -5.050949   -2.134533   -1.638853
H      -3.789406   -3.380362   -1.648079
H      -4.749489   -3.091413   -0.186184
H      -1.287560   -2.173770   -1.367686
