16

C       0.106264    1.436610    0.106910
C      -0.080141   -0.087485   -0.029258
C      -1.509071   -0.432771   -0.035245
N      -2.634417   -0.696132   -0.049803
C       0.608090   -0.644822   -1.268919
C       2.075002   -0.986672   -1.209965
C       1.044271   -2.084049   -1.319350
H       1.173173    1.670486    0.148777
H      -0.328027    1.956590   -0.751550
H      -0.373643    1.814477    1.013019
H       0.357993   -0.573730    0.852580
H       0.243892   -0.214785   -2.197647
H       2.688718   -0.762768   -2.074982
H       2.587224   -0.866829   -0.260507
H       0.864194   -2.699343   -0.444012
H       0.949198   -2.614274   -2.259752
