17

C      -0.262739    1.511530   -0.070908
C       0.093166    0.015800    0.025033
C       0.812094   -0.516142   -1.178312
C       2.145473   -0.768577   -1.360266
C       2.264962   -1.218897   -2.703734
N       1.106768   -1.252123   -3.326359
N       0.207724   -0.818888   -2.392151
C      -1.158849   -0.747621   -2.696660
O      -1.640143   -1.018155   -3.758851
H       0.636538    2.112725   -0.231580
H      -0.948871    1.712880   -0.898959
H      -0.741597    1.849253    0.852712
H       0.749657   -0.141996    0.886170
H      -0.811309   -0.570009    0.225641
H       2.927689   -0.650305   -0.627068
H       3.160207   -1.522433   -3.228265
H      -1.742225   -0.408490   -1.824242
