17

C      -0.125525    1.505599    0.082144
C      -0.007041    0.006808    0.008396
N      -1.199855   -0.736375   -0.286490
C      -1.175460   -1.989697    0.305042
N      -1.988703   -2.928892    0.081565
O      -0.117428   -2.033135    1.195654
C       0.665900   -0.869740    1.033962
C       1.312052   -0.697835   -0.325375
O       1.306786   -1.742990   -1.238561
H       0.819388    1.953814    0.402509
H      -0.374393    1.927553   -0.898033
H      -0.907568    1.798447    0.789242
H      -1.595809   -0.707547   -1.214072
H      -1.759961   -3.742023    0.647747
H       1.118824   -0.526408    1.956223
H       2.196240   -0.060870   -0.352451
H       1.491200   -2.563607   -0.767819
