17

C       0.586260    0.381020   -1.004277
C      -0.177552    0.323204    0.299930
O       0.200447    0.865400    1.315295
C      -1.475912   -0.429634    0.299834
C      -2.513776   -0.205472    1.383545
O      -3.404438   -1.313757    1.296189
C      -2.722692   -2.427244    0.741631
C      -1.617146   -1.842172   -0.112850
O      -2.051401   -0.792168   -0.967387
H       1.537227    0.888562   -0.840996
H       0.758045   -0.621030   -1.409730
H      -0.003987    0.918999   -1.753291
H      -2.004630   -0.150560    2.355116
H      -3.101420    0.705627    1.239062
H      -2.274717   -3.071711    1.516312
H      -3.447114   -3.017752    0.171409
H      -0.791241   -2.453778   -0.466886
