18

O       0.014338    1.398375    0.061653
C       0.022034    0.017149    0.050778
C      -0.312917   -0.793014   -1.170146
C      -1.172042   -0.939476    0.062856
C      -0.452204   -1.859627    1.055033
C       0.718566   -0.821558    1.108109
O       2.024082   -1.264382    0.757171
C       2.885091   -1.532676    1.756666
N       4.017171   -2.030223    1.503214
H       0.692630    1.710623   -0.547390
H      -0.757723   -0.200550   -1.963344
H       0.325055   -1.606687   -1.504927
H      -2.226629   -0.699049    0.065396
H      -0.954107   -1.981436    2.017006
H      -0.170154   -2.841636    0.665030
H       0.744643   -0.292239    2.067129
H       2.498280   -1.264680    2.750496
H       4.544460   -2.146041    2.366135
