18

C      -0.161111    1.464570    0.078012
C      -0.002220   -0.026373   -0.019958
C      -0.045072   -0.692949   -1.212799
C       0.038030   -2.130726   -1.256575
O       0.151366   -2.821410   -2.262369
C      -0.066381   -2.845914    0.102684
O       0.434818   -4.146465    0.003854
C       0.687285   -2.048346    1.163329
N       0.183891   -0.677816    1.164400
H       0.743737    1.927852    0.489442
H      -0.358866    1.902185   -0.900619
H      -0.991826    1.718646    0.746111
H      -0.156842   -0.145780   -2.139878
H      -1.139389   -2.848496    0.373517
H       0.484047   -4.302664   -0.956490
H       0.540860   -2.488309    2.152776
H       1.763267   -2.076980    0.928768
H       0.414943   -0.107800    1.962639
