13

F      -0.011103    0.031678    0.004269
C      -0.026395    1.357880    0.010932
C      -1.234026    2.032989    0.030063
C      -1.194718    3.423849    0.036322
N      -0.063861    4.136947    0.024961
C       1.082023    3.462774    0.006645
C       1.183967    2.060107   -0.001528
C       2.439193    1.398046   -0.021226
C       3.514663    0.858111   -0.037942
H      -2.167227    1.483798    0.039633
H      -2.121834    3.990639    0.051249
H       1.997020    4.048583   -0.002509
H       4.460032    0.374338   -0.052621
