15

C      -0.045381    1.353689    0.002551
O      -0.022419   -0.068325   -0.029014
C      -1.229736   -0.671284   -0.016892
N      -2.385998   -0.025999    0.020734
N      -3.304558   -1.018233    0.018866
C      -2.747992   -2.261302   -0.027608
C      -1.380665   -2.081303   -0.048299
N      -0.342887   -3.026762   -0.155850
H       0.997460    1.674415   -0.011935
H      -0.576175    1.756320   -0.866874
H      -0.540277    1.718669    0.909172
H      -4.277867   -0.779073    0.062147
H      -3.348901   -3.156416   -0.041976
H      -0.446110   -3.796324    0.494483
H       0.552534   -2.583124    0.009710
