16

C       0.001292    1.498107    0.098057
C       0.004763   -0.005733    0.002199
C      -1.112670   -0.740519    0.070216
C      -1.175865   -2.244330    0.021023
N      -0.546648   -2.800911   -1.179407
C       0.667312   -2.561513   -1.383345
O       1.564376   -1.846257   -0.617981
C       1.366065   -0.603213   -0.039230
O       2.336109   -0.046027    0.392945
H       0.567866    1.827049    0.973628
H       0.485292    1.949509   -0.774783
H      -1.019761    1.879799    0.166606
H      -2.059996   -0.216318    0.173658
H      -0.699080   -2.675159    0.914315
H      -2.217920   -2.569818    0.030599
H       1.188998   -2.996065   -2.233057
