20

C      -0.101086    1.600577    0.204983
C       0.020510    0.087952    0.075873
C       0.963140   -0.506990   -1.034073
C       1.713443   -1.268209    0.060970
C       2.293304   -0.340928    1.086337
C       0.818557   -0.690428    1.138865
O       2.117672   -2.595540   -0.072614
C       3.394111   -2.803566   -0.473508
N       3.795594   -3.977677   -0.698260
H       0.876584    2.080689    0.317386
H      -0.580391    2.030508   -0.681131
H      -0.706290    1.872343    1.076559
H      -0.976789   -0.349720   -0.027423
H       0.433328   -1.175205   -1.715596
H       1.554336    0.206310   -1.618545
H       2.884480   -0.831175    1.853343
H       2.638852    0.654929    0.819643
H       0.399763   -1.180455    2.009181
H       3.977198   -1.877754   -0.554415
H       4.775092   -3.960060   -0.975157
