16

C      -0.096243    1.525571    0.050616
C       0.135055    0.051941   -0.008669
O      -0.760900   -0.816468    0.685167
C       0.630566   -0.943206    0.978059
C       1.255572   -1.823193   -0.136201
N       0.553960   -3.062810   -0.446441
C      -0.233867   -2.767799   -1.397734
O      -0.215506   -1.522997   -1.959164
C       0.726689   -0.781137   -1.174306
H       0.792137    2.073197   -0.279994
H      -0.930551    1.811404   -0.599417
H      -0.338494    1.832262    1.071466
H       0.933082   -0.830439    2.013114
H       2.335341   -1.955799   -0.047891
H      -0.940396   -3.445898   -1.862865
H       1.427637   -0.260945   -1.828306
