17

O      -0.176873    1.441764   -0.101923
C      -0.020522    0.056773    0.053169
C       0.007627   -0.572818    1.467199
C      -1.522087   -0.155234    1.594532
C      -1.350092   -0.748652    0.153129
C      -1.768968   -1.599847   -1.058995
C      -0.484320   -2.464409   -0.695812
O       0.171274   -3.251353   -1.301740
C      -0.518073   -1.880333    0.767171
H       0.690526    1.853099   -0.036968
H       0.723998   -0.344357   -0.648204
H       0.773804   -0.473302    2.239689
H      -2.124056   -0.745781    2.288622
H      -1.718417    0.912726    1.678869
H      -2.671419   -2.199325   -0.899196
H      -1.805889   -1.140556   -2.049507
H      -1.066333   -2.568067    1.420032
