19

C      -0.751243    1.312217   -0.006352
C      -0.044914   -0.027042   -0.059939
O       1.178776    0.027476   -0.845533
C       1.981107   -0.501726    0.240896
C       3.108233    0.340646    0.606769
C       4.041678    1.022129    0.938453
C       0.749171   -0.495420    1.159832
C       0.669405   -0.027534    2.576923
C       0.390875   -1.473760    2.231251
H      -0.094701    2.079735    0.412270
H      -1.048696    1.619174   -1.013900
H      -1.656287    1.246218    0.607966
H      -0.716375   -0.798958   -0.463284
H       2.339655   -1.512183   -0.002562
H       4.868486    1.628106    1.216715
H       1.602804    0.213717    3.075025
H      -0.167156    0.602177    2.862312
H      -0.635852   -1.824108    2.277537
H       1.128834   -2.220041    2.508885
