20

C       0.073645    1.511366   -0.069434
C       0.015161   -0.011364    0.015792
O       0.687405   -0.464441    1.203512
C       2.014837   -0.674871    1.123685
N       2.677842   -0.947227    2.162444
C      -1.403693   -0.551398    0.100502
C      -2.220058   -0.520154   -1.211570
O      -2.231052   -1.957251   -1.294403
C      -1.550508   -2.082074   -0.026299
H       1.108537    1.859162   -0.138696
H      -0.464197    1.870988   -0.952238
H      -0.377674    1.957306    0.821782
H       0.511656   -0.454599   -0.861038
H       2.409215   -0.599417    0.099828
H       3.653790   -1.103569    1.919325
H      -1.906130   -0.116244    0.967260
H      -3.231002   -0.102898   -1.124612
H      -1.723915   -0.061220   -2.077438
H      -0.613552   -2.645479   -0.111018
H      -2.182053   -2.557329    0.733384
