20

C      -0.070222    1.578290    0.102593
C      -0.033180    0.047957    0.065985
C       0.759259   -0.558616    1.226109
O       0.224897   -0.194230    2.484209
C       1.058494   -2.073248    1.119155
O       2.488066   -1.791569    0.961226
C       2.275399   -0.439256    1.142046
N       3.072250    0.518158    1.260695
C       4.507137    0.267204    1.208761
H       0.940924    1.994718    0.076143
H      -0.628744    1.973278   -0.750642
H      -0.562087    1.929567    1.014465
H      -1.052106   -0.356159    0.114220
H       0.404637   -0.298239   -0.878333
H       0.683779    0.605050    2.766487
H       0.865500   -2.628829    2.038545
H       0.665098   -2.596134    0.244800
H       4.772111   -0.796278    1.212989
H       4.921661    0.726596    0.304310
H       4.985098    0.756009    2.063930
