15

O      -0.161245   -0.005383    0.343506
C      -0.078074    1.163658    0.080824
N      -1.227978    1.936497   -0.318081
C      -1.253369    3.147192    0.389407
C      -0.112498    3.861044    0.362068
C       0.785298    3.968808    1.605231
C       1.735125    2.992551    0.836648
C       1.029904    3.258009   -0.450146
N       1.131929    1.892928    0.006871
H      -2.065613    1.369791   -0.306513
H      -2.032291    3.281129    1.137594
H       1.323963    4.916631    1.714912
H       0.368178    3.664581    2.567734
H       2.796037    2.879457    1.026337
H       1.403969    3.542981   -1.426220
