19

C      -0.055909    1.521872    0.082876
C      -0.008307    0.020445    0.000016
C       0.006172   -0.645722   -1.164513
C       0.052586   -2.115256   -1.292219
C       1.277141   -2.912056   -0.874850
C       0.047193   -2.945638   -0.013417
C       0.033443   -2.198611    1.286248
O       1.198831   -1.457737    1.641042
C       0.001410   -0.721429    1.287049
H       0.836382    1.921521    0.581338
H      -0.121612    1.975420   -0.909725
H      -0.919449    1.861675    0.669119
H      -0.027434   -0.079419   -2.093151
H      -0.491784   -2.518983   -2.141153
H       1.518867   -3.796641   -1.453201
H       2.121838   -2.355874   -0.487434
H      -0.549773   -3.850969   -0.018651
H      -0.434550   -2.720759    2.120253
H      -0.441120   -0.204554    2.138634
