17

C      -0.358743    1.037809   -0.338383
C       1.020427    1.161356    0.257399
C       0.411052   -0.198871    0.061363
N      -0.001224   -0.903296    1.239340
C      -0.982601   -1.869010    1.159222
N      -1.036972   -2.844268    2.045664
O      -2.175035   -3.589063    1.706087
C      -2.741927   -3.041014    0.627693
C      -2.053326   -1.950066    0.213408
H      -1.198082    1.315513    0.287963
H      -0.487240    1.237517   -1.396205
H       1.844011    1.446254   -0.386708
H       1.090593    1.525318    1.276002
H       0.813200   -0.804930   -0.751431
H       0.745429   -1.158682    1.871890
H      -3.631927   -3.531372    0.262921
H      -2.262573   -1.299886   -0.617655
