18

C      -0.002247    1.458196    0.006896
C      -0.034173   -0.044590    0.054638
C      -1.068723   -0.840639   -0.732725
C      -1.311967   -2.173441   -0.060794
C      -0.412106   -2.083367   -1.287744
C       0.834033   -2.148779   -0.384046
C      -0.074503   -2.267263    0.872107
C       0.397283   -0.841646    1.228370
N       1.284785   -0.746118    0.004394
H       0.836231    1.843584    0.592181
H       0.117129    1.813404   -1.022396
H      -0.927990    1.884064    0.409157
H      -1.858808   -0.347405   -1.283650
H      -2.284703   -2.634851    0.058497
H      -0.545541   -2.457806   -2.294918
H       1.649679   -2.833523   -0.603385
H       0.014412   -3.081970    1.585495
H       0.700146   -0.447733    2.193653
