19

C      -0.024700    1.524466    0.010945
C       0.134207    0.032970    0.036992
O      -1.124086   -0.651844   -0.202684
C      -0.752387   -1.931224    0.349447
C      -0.509105   -1.587428    1.833480
C       0.691298   -0.827029    1.247632
C       0.811501   -1.904352    0.102671
C       1.057068   -0.777666   -0.914431
O       0.681715   -0.897987   -2.253344
H       0.936156    2.014018    0.194294
H      -0.391830    1.848354   -0.968284
H      -0.737326    1.856415    0.771910
H      -1.421658   -2.716353    0.001942
H      -1.302476   -1.042796    2.352035
H      -0.181848   -2.450960    2.418382
H       1.529692   -0.438917    1.822339
H       1.383282   -2.826758    0.177093
H       2.095779   -0.436939   -0.874541
H      -0.282470   -0.969984   -2.240458
