18

C      -0.569444    1.268213    0.134435
N       0.016294   -0.063397    0.094631
C       1.402311   -0.203504   -0.336683
C       1.010586   -0.472513    1.074392
C       1.509875    0.455076    2.197134
C       0.542192    0.514790    3.299969
C      -0.268229    0.555456    4.185203
C       2.827883    0.007521    2.660072
C       3.907651   -0.379722    3.014976
H       0.150953    2.083321    0.310478
H      -1.055309    1.461133   -0.826891
H      -1.329993    1.305936    0.919365
H       1.617520   -1.018033   -1.022961
H       1.973435    0.707333   -0.520840
H       0.902361   -1.501166    1.410563
H       1.624114    1.467124    1.787990
H      -0.977776    0.593456    4.974503
H       4.862348   -0.714613    3.337733
