17

O       0.335212   -0.106303   -0.173229
C       0.285463    1.093418   -0.109320
C       1.458127    2.004364    0.169211
C       1.648888    3.057628   -0.966327
O       1.465391    4.343275   -0.385079
C       1.800933    4.248784    0.994563
C       1.211283    2.885692    1.417721
C       3.248756    4.328700    1.223600
C       4.436334    4.380879    1.401423
H      -0.675626    1.642022   -0.263543
H       2.350601    1.387809    0.285711
H       2.652833    2.960701   -1.397064
H       0.915938    2.961242   -1.774308
H       1.304777    5.085867    1.495281
H       0.137946    3.014234    1.593546
H       1.665735    2.475648    2.319923
H       5.485055    4.440192    1.560410
