19

C      -0.141706    1.555578   -0.511552
C       0.088847    0.230376    0.211124
O       0.741949    0.401338    1.466590
C      -1.221285   -0.505336    0.424361
O      -1.827691   -1.119417   -0.700503
C      -1.369175   -1.979811    0.339785
C      -0.191927   -2.876261    0.042940
C       0.019210   -4.002383    1.034901
O       0.530275   -2.693741   -0.909202
H       0.808484    2.076852   -0.654524
H      -0.601093    1.383467   -1.489073
H      -0.810606    2.207825    0.065620
H       0.749013   -0.401054   -0.386784
H       0.296862    1.113875    1.938627
H      -1.921930    0.008015    1.091366
H      -2.161172   -2.434909    0.936238
H      -0.826872   -4.698886    1.002205
H       0.940265   -4.534894    0.797253
H       0.069159   -3.606781    2.055911
