18

C       0.297584    0.613538    0.541935
O      -0.454892    0.338844   -0.649775
C      -1.517639   -0.481282   -0.475945
C      -1.598144   -1.845326   -0.277739
C      -0.441788   -2.778125   -0.163344
O       0.123791   -2.696878    1.155692
C      -2.991096   -2.156862   -0.212550
C      -3.699933   -0.993822   -0.378926
N      -2.788035    0.028344   -0.529338
H       1.174620    1.182188    0.225551
H      -0.293543    1.217207    1.242613
H       0.598753   -0.317639    1.030037
H      -0.778834   -3.804304   -0.369620
H       0.321758   -2.521944   -0.913209
H       0.887741   -3.283313    1.178273
H      -3.412808   -3.140068   -0.065975
H      -4.759658   -0.802798   -0.414652
H      -2.994790    0.996815   -0.702752
