21

C      -0.724589    1.246472   -1.097664
C       0.082460   -0.010320   -0.839993
O       1.436402    0.095324   -1.339231
C       1.996437   -0.406592   -0.106599
C       3.143062    0.446629    0.397909
C       0.603207   -0.364177    0.585249
C       0.391921    0.647052    1.717621
C      -1.000807    0.538817    2.298942
O      -1.807110    1.431327    2.343125
H      -0.235691    2.131396   -0.682824
H      -0.829279    1.395205   -2.176969
H      -1.725904    1.166933   -0.663137
H      -0.425599   -0.870293   -1.301179
H       2.345000   -1.441961   -0.239645
H       2.836028    1.483945    0.554943
H       3.541436    0.048701    1.337707
H       3.952028    0.441683   -0.339273
H       0.271396   -1.349491    0.927285
H       1.098324    0.413369    2.527594
H       0.564063    1.679204    1.406349
H      -1.247627   -0.474720    2.697045
