21

C      -0.055646    1.535975   -0.198403
C       1.402401    2.018220   -0.044090
C       2.222334    0.797674   -0.497692
C       3.671665    0.692853   -0.034281
O       4.179494   -0.599721   -0.332102
C       3.531095   -1.641181    0.374401
C       2.039001   -1.467272    0.496466
C       1.431587   -0.363438    0.072980
C      -0.025660    0.040646    0.215652
H      -0.762990    2.123612    0.392353
H      -0.359795    1.627449   -1.247149
H       1.615885    2.924590   -0.617904
H       1.617541    2.235590    1.010481
H       2.208069    0.752195   -1.596958
H       4.327347    1.399376   -0.551874
H       3.732510    0.897776    1.048084
H       3.774767   -2.564944   -0.165591
H       3.965117   -1.746349    1.386870
H       1.496292   -2.271251    0.989238
H      -0.361099   -0.093012    1.250542
H      -0.690678   -0.568145   -0.406386
