15

N      -0.075418    1.412313   -0.130000
C       0.057139    0.046197    0.044917
N      -0.926008   -0.673670    0.543836
O      -0.410980   -1.972266    0.660632
C       0.851340   -1.987125    0.207748
C       1.221508   -0.744102   -0.198150
C       1.586094   -3.262266    0.244130
C       1.177754   -4.376424    1.116452
O       0.922837   -4.418711   -0.283896
H       0.392559    1.773908   -0.948467
H      -1.037330    1.721455   -0.082098
H       2.170924   -0.431090   -0.599960
H       2.633663   -3.173782   -0.038465
H       1.937206   -5.067063    1.480444
H       0.299687   -4.255000    1.746534
