17

O       0.351301    0.824423   -0.805228
C      -0.031931    0.057139    0.322505
C      -1.450946   -0.469547    0.197146
C      -1.700532   -1.946721    0.065791
C      -1.235418   -2.464862   -1.319977
C      -1.359128   -3.915518   -1.432944
N      -1.463456   -5.064227   -1.502092
N      -2.477659    0.289610    0.144087
O      -2.113318    1.649494    0.237841
H      -0.258263    1.572062   -0.833947
H       0.674769   -0.774681    0.388928
H       0.045682    0.635175    1.255407
H      -1.155721   -2.486344    0.848943
H      -2.765211   -2.151782    0.194884
H      -1.834021   -1.993640   -2.106454
H      -0.193652   -2.183903   -1.509043
H      -2.964796    2.097017    0.193170
