19

C       0.103027    1.551148    0.044205
C      -0.024909    0.028632   -0.020039
C      -1.482195   -0.497978   -0.014179
N      -2.200737    0.049090   -1.166398
C      -1.450994   -2.066255    0.022118
C      -2.773338   -2.663259   -0.089273
C      -3.880927   -3.117757   -0.196405
C      -2.164134   -0.026509    1.210179
N      -2.672557    0.325364    2.185957
H       1.155634    1.843787   -0.008278
H      -0.432585    2.023433   -0.782027
H      -0.309859    1.940799    0.979138
H       0.443030   -0.351828   -0.937709
H       0.510646   -0.433092    0.816647
H      -1.720168   -0.232236   -2.017273
H      -3.133843   -0.352618   -1.207824
H      -0.820005   -2.397260   -0.812645
H      -0.960200   -2.402191    0.943208
H      -4.854061   -3.537026   -0.270296
