15

C       0.057882    1.530377   -0.051988
C      -0.036931    0.043488   -0.046137
N      -1.055960   -0.641986    0.282092
C      -0.676970   -2.064466    0.123969
C       0.813579   -2.011162   -0.346805
O       1.095414   -0.602859   -0.440947
C      -0.863364   -2.828467    1.353758
C      -0.988900   -3.477111    2.357191
H       0.862220    1.858400    0.613647
H       0.299441    1.889949   -1.056977
H      -0.888219    1.959525    0.275023
H      -1.312225   -2.503577   -0.655350
H       1.498645   -2.460936    0.375088
H       0.967196   -2.464332   -1.329063
H      -1.113843   -4.042847    3.247223
