21

C      -0.043917    1.090128    0.451682
O      -0.137528   -0.012706   -0.429751
C      -1.349626   -0.689653   -0.320704
C      -1.407309   -2.063146   -0.916778
C      -1.435769   -1.892753    0.576889
C      -0.403448   -2.356182    1.593722
O      -1.444602   -2.588408    2.569438
C      -2.493315   -2.275620    1.614335
C      -3.447611   -1.217191    2.130227
H       0.942356    1.536097    0.304649
H      -0.812619    1.846282    0.231035
H      -0.149444    0.787541    1.502963
H      -2.232527   -0.053422   -0.413174
H      -2.314981   -2.360915   -1.432609
H      -0.488441   -2.444811   -1.350981
H       0.127123   -3.282071    1.332768
H       0.327461   -1.612211    1.932241
H      -3.047402   -3.188415    1.346819
H      -2.910715   -0.296857    2.378178
H      -4.214765   -0.987627    1.382029
H      -3.952580   -1.576625    3.032246
