21

C      -0.053461    1.557369    0.061716
C      -0.045347    0.036163    0.044580
C       0.817365   -0.612661   -1.070692
O       2.006593   -0.369330   -0.245650
C       1.089305   -0.631700    0.858553
C       0.822193   -2.140072    0.684893
O      -0.325668   -2.502465    1.431871
C       0.646694   -2.136455   -0.885556
C      -0.643114   -2.756536   -1.415139
H       0.956410    1.951824   -0.076680
H      -0.690075    1.953582   -0.736926
H      -0.444598    1.935176    1.012400
H      -1.046018   -0.374516    0.196471
H       0.884699   -0.208202   -2.082472
H       1.429170   -0.272278    1.830260
H       1.692973   -2.730378    0.994473
H      -0.446359   -3.453959    1.362407
H       1.506069   -2.629177   -1.350740
H      -1.531714   -2.312550   -0.960426
H      -0.714182   -2.629496   -2.500641
H      -0.674777   -3.833844   -1.215791
