17

C       0.040622    1.460952    0.060327
C      -0.003592   -0.023591   -0.020968
C      -0.015256   -0.883787   -1.045638
C      -0.049315   -2.234774   -0.320163
O      -1.024142   -1.984687    0.742892
C      -0.035238   -1.002326    1.173752
C       1.086801   -2.031276    0.757905
C       1.315642   -3.131532    1.670492
C       1.541873   -4.041466    2.423498
H       0.925797    1.805048    0.610381
H       0.063649    1.915070   -0.934011
H      -0.832061    1.855910    0.595497
H       0.008928   -0.711950   -2.111701
H      -0.191807   -3.167255   -0.862700
H      -0.160755   -0.638066    2.192620
H       2.024295   -1.604594    0.392857
H       1.726154   -4.847540    3.089652
