18

O       0.172866    1.115654    0.654981
C       0.069576   -0.016649   -0.191520
C      -1.332974   -0.592188   -0.186890
C      -1.645512   -2.073917   -0.172441
C      -0.585733   -3.150297   -0.078693
O       0.275142   -3.062275    1.075519
C      -0.069634   -2.263210    2.105592
N      -1.008358   -1.416053    2.196814
C      -1.878928   -1.252618    1.069467
H      -0.061026    0.811816    1.540796
H       0.320818    0.332025   -1.198870
H       0.812975   -0.781207    0.072689
H      -2.057555    0.022021   -0.714690
H      -2.514593   -2.390989   -0.741123
H      -1.079769   -4.127130   -0.027333
H       0.086864   -3.160053   -0.942858
H       0.620484   -2.416075    2.932750
H      -2.894160   -1.002506    1.356995
