23

C      -0.125588    1.631355   -0.093976
C      -0.114901    0.099293   -0.112859
C       0.762966   -0.507009   -1.214803
O       0.331969   -0.105376   -2.503240
C       2.299582   -0.408145   -0.939673
C       2.273316   -1.869127   -0.452600
C       0.881331   -2.049025   -1.126195
O       3.347960   -2.637430   -0.924623
C       3.282646   -3.987208   -0.524762
H       0.882825    2.043066    0.024541
H      -0.553349    2.041057   -1.015898
H      -0.734415    2.007817    0.733065
H       0.227746   -0.276375    0.859451
H      -1.136984   -0.273828   -0.252266
H       0.412863    0.852328   -2.564450
H       2.848003   -0.344782   -1.882263
H       2.662053    0.355104   -0.246895
H       2.206109   -1.947007    0.644026
H       0.097845   -2.582949   -0.582889
H       0.993884   -2.468989   -2.128599
H       3.286662   -4.087786    0.572555
H       2.382769   -4.488695   -0.911618
H       4.165219   -4.489839   -0.927763
