23

C      -0.725433    1.284802    0.196230
C       0.096081    0.012271   -0.036084
C       0.980244    0.150251   -1.303974
C       2.250947   -0.736467   -1.284782
C       2.741412   -0.960233    0.155525
C       1.644616   -1.730216    0.945008
C       0.977373   -0.344988    1.179704
C       2.403617    0.278120    1.044358
O       3.135776    0.379124    2.249022
H      -0.073727    2.137916    0.419269
H      -1.315393    1.542242   -0.690224
H      -1.417006    1.164771    1.036712
H      -0.605813   -0.821000   -0.179424
H       0.386508   -0.042413   -2.203352
H       1.294922    1.197729   -1.377710
H       2.055309   -1.712510   -1.745792
H       3.031899   -0.259749   -1.887963
H       3.769060   -1.331525    0.193332
H       1.066009   -2.483398    0.400787
H       2.018267   -2.188857    1.865938
H       0.455202   -0.172158    2.125726
H       2.486757    1.266156    0.584683
H       3.092573   -0.464830    2.709881
