18

C      -0.022207    1.417886    0.049612
N      -0.050005   -0.033427    0.011539
C       0.568535   -0.601043   -0.938904
N       1.310256   -0.065058   -1.988514
C       1.679953   -1.104435   -2.936853
C       1.280031   -2.392594   -2.213377
O       1.486168   -3.528187   -2.571821
N       0.632993   -1.994175   -1.066197
C       0.078988   -2.904955   -0.086059
H       0.993812    1.829418   -0.054409
H      -0.644182    1.868134   -0.741017
H      -0.425617    1.761168    1.005505
H       1.031999    0.840337   -2.330421
H       1.136999   -1.040834   -3.888332
H       2.752164   -1.116506   -3.158495
H       0.314953   -3.917183   -0.416299
H       0.515540   -2.713287    0.897203
H      -1.003675   -2.774428   -0.011362
