16

N       0.229542    1.184248   -0.177290
C      -0.117592    0.006577    0.401781
O       0.349361   -0.352243    1.472340
C      -1.174338   -0.802363   -0.350866
C      -0.961028   -2.283324   -0.286223
N      -1.284881   -3.138367   -1.234346
C      -0.955280   -4.376436   -0.730207
C      -0.427824   -4.259890    0.529149
N      -0.446335   -2.912969    0.804841
H       0.908269    1.764903    0.288279
H      -0.103491    1.457179   -1.084633
H      -2.138128   -0.537406    0.109082
H      -1.243153   -0.515008   -1.402633
H      -1.115119   -5.276811   -1.303600
H      -0.048648   -4.981817    1.232917
H      -0.067009   -2.409188    1.594572
