19

C       0.020601    1.478494    0.030280
C       0.023059    0.022035    0.012589
C       0.013775   -1.183192    0.019096
C      -0.008366   -2.644325   -0.011915
C      -1.446635   -3.191724    0.050705
C       0.755279   -3.137458   -1.292496
N       2.111693   -2.623256   -1.464840
C       0.798164   -4.607658   -1.311800
N       0.822877   -5.762587   -1.290476
H       0.913140    1.873325    0.527601
H      -0.003633    1.888778   -0.985045
H      -0.854915    1.864097    0.563762
H       0.549781   -3.026429    0.854136
H      -2.027503   -2.848983   -0.811191
H      -1.443332   -4.284782    0.057986
H      -1.947320   -2.839063    0.955293
H       0.167760   -2.816582   -2.162371
H       2.070993   -1.608761   -1.408990
H       2.698924   -2.935402   -0.695811
