18

C       2.037784   -0.844436    2.609337
C       1.113863   -1.122796    1.445660
C       0.208208   -0.059193    0.864105
C       0.242143    1.279568    1.368305
C       0.236416    2.425858    1.764679
C       0.234932    3.707978    2.216088
C       0.234179    4.848024    2.616094
N       1.336048   -0.629738    0.095643
C       2.491652    0.208123   -0.201620
H       2.954225   -1.438183    2.523238
H       2.311893    0.208855    2.687258
H       1.545437   -1.128860    3.544661
H       0.694592   -2.129035    1.452417
H      -0.767023   -0.366206    0.489969
H       0.232616    5.849282    2.968944
H       2.301166    0.737877   -1.139548
H       2.737269    0.954661    0.564086
H       3.358995   -0.442499   -0.349178
