17

O       0.124460    1.382891   -0.105687
C       0.039908   -0.010986   -0.015451
C       0.412269   -0.630278    1.370713
C      -0.779755   -0.127524    2.194736
C      -1.852756   -0.114480    1.390774
C      -1.404517   -0.608189    0.009460
C      -1.083595   -2.106231    0.232365
O       0.190457   -2.561455   -0.257771
C       0.084920   -2.120439    1.107892
H      -0.408821    1.748626    0.612056
H       0.643673   -0.407828   -0.827701
H       1.406199   -0.408766    1.758135
H      -0.746889    0.112548    3.249637
H      -2.870577    0.138369    1.658434
H      -2.051932   -0.366715   -0.832920
H      -1.873455   -2.850906    0.258947
H       0.269593   -2.876963    1.864658
