20

C      -0.019212    1.714517    0.075784
C      -0.053676    0.197389    0.101805
C      -1.375196   -0.393502   -0.394861
C      -1.656872   -0.059317   -1.793470
N      -1.865646    0.215674   -2.896341
C       1.200983   -0.585274   -0.204808
C       0.633892   -0.594480    1.195067
C       1.371471    0.047124    2.342329
O       2.291865   -0.913367    2.842973
H       0.955107    2.104863    0.376559
H      -0.222605    2.082515   -0.935454
H      -0.775271    2.143757    0.744231
H      -1.364938   -1.484569   -0.300464
H      -2.210055   -0.031035    0.218405
H       1.125350   -1.486699   -0.803463
H       2.112200   -0.019952   -0.371189
H       0.132917   -1.511768    1.495822
H       1.892982    0.955641    2.006743
H       0.655689    0.351261    3.123512
H       2.723387   -0.538661    3.616723
