24

C       0.129718    1.541043    0.109373
C      -0.021081    0.019671    0.010163
C      -1.474786   -0.485633   -0.080186
C      -2.166808   -0.010599   -1.366402
C      -1.503312   -2.020443    0.055882
C      -2.902192   -2.629898    0.197723
C      -2.837900   -4.153249    0.431379
C      -4.160169   -4.760526    0.566594
N      -5.214199   -5.222832    0.670849
H       1.179722    1.819029    0.243680
H      -0.229562    2.051803   -0.788901
H      -0.429690    1.938474    0.963928
H       0.539204   -0.349188   -0.860510
H       0.451456   -0.438178    0.888712
H      -2.024019   -0.066816    0.777030
H      -1.659304   -0.413541   -2.251652
H      -3.213009   -0.326593   -1.409336
H      -2.159007    1.079662   -1.446874
H      -0.996845   -2.468082   -0.811652
H      -0.907472   -2.304533    0.934030
H      -3.431523   -2.163631    1.036765
H      -3.504359   -2.439769   -0.695795
H      -2.315709   -4.642121   -0.399677
H      -2.260091   -4.375077    1.336457
