15

N      -0.095680   -1.149858    0.300747
C      -0.080637   -0.010461    0.110030
C      -0.035666    1.434380   -0.139871
C       1.369111    1.980980   -0.102521
C       2.085543    2.410030    1.162778
C       1.901268    3.388902    0.043402
O       2.895237    3.203350   -0.963300
C       2.399565    1.861742   -1.225037
H      -0.502350    1.629649   -1.113355
H      -0.657121    1.933892    0.612017
H       1.436116    2.553789    2.021572
H       3.080094    2.038471    1.392753
H       1.421583    4.358374    0.117828
H       3.177725    1.097380   -1.125192
H       1.950614    1.808656   -2.224071
