19

C       0.055623    1.125578    0.623545
O      -0.171472   -0.254728    0.398018
C      -1.317938   -0.518136   -0.365789
C      -1.426942   -2.031616   -0.532743
C      -2.104997   -2.455876    0.790320
C      -2.913047   -1.183724    1.173121
O      -2.508717   -0.138117    0.286670
C      -3.003768   -3.655753    0.610548
O      -2.914525   -4.691647    1.214620
H       0.967833    1.206161    1.218106
H       0.197867    1.665723   -0.324728
H      -0.777374    1.586770    1.166589
H      -1.288992    0.050214   -1.306267
H      -2.071974   -2.252177   -1.390007
H      -0.457339   -2.505401   -0.686028
H      -1.359407   -2.690175    1.550910
H      -3.994348   -1.319997    1.048492
H      -2.722564   -0.904679    2.214623
H      -3.797929   -3.503061   -0.161074
