23

C      -0.037566    1.332639   -0.322948
C       0.230223   -0.123501   -0.007143
C       1.636802   -0.668961    0.098518
C       0.754608   -0.615077    1.327369
C       1.103812    0.378540    2.422425
C       0.194531   -1.908645    1.894351
C      -0.100523   -3.104291    0.958208
O       0.938116   -3.900071    1.560026
C       1.220239   -2.877880    2.537084
H       0.726594    1.993787    0.094417
H      -0.048323    1.493693   -1.406683
H      -1.008297    1.656799    0.069092
H      -0.482034   -0.795527   -0.481689
H       1.867290   -1.630481   -0.349093
H       2.453696    0.044496    0.044639
H       1.560546    1.289049    2.028126
H       0.213290    0.670178    2.992426
H       1.817223   -0.060783    3.129926
H      -0.645710   -1.671288    2.554654
H      -1.091963   -3.556191    1.092273
H       0.069215   -2.953861   -0.114525
H       2.266569   -2.550361    2.495067
H       0.988637   -3.211611    3.556758
