14

O      -0.163801    1.314954    0.010898
C       0.048485   -0.017705    0.002433
C       1.218346   -0.679108   -0.007304
C       1.230894   -2.141241   -0.015448
N       2.340014   -2.782682   -0.024749
N      -0.027997   -2.790692   -0.012501
C      -1.091614   -2.082498   -0.003060
O      -2.316447   -2.634283    0.000247
N      -1.144400   -0.715987    0.004780
H       0.688977    1.763632    0.008948
H       2.165014   -0.155168   -0.009328
H       2.137788   -3.783906   -0.029232
H      -2.170582   -3.590794   -0.005804
H      -2.025072   -0.227329    0.012026
