17

C      -0.050749    1.538077    0.012171
C       0.108517    0.050337    0.073107
O      -1.173094   -0.670564    0.116075
C      -0.654456   -1.672885    1.017104
C       0.175872   -2.730430    0.261040
N       1.334547   -1.752918    0.143734
C       0.653672   -0.877005    1.197756
C       1.015701   -0.742760   -0.861159
N       1.383235   -0.577800   -2.050685
H       0.926172    2.028801    0.046831
H      -0.535970    1.815547   -0.928606
H      -0.665088    1.897639    0.842079
H      -1.384611   -1.965748    1.773698
H       0.474482   -3.572340    0.893244
H      -0.216998   -3.094251   -0.691645
H       1.191901   -0.604005    2.101604
H       1.994578   -1.343103   -2.349524
