19

C      -0.516489    1.194908   -0.002750
C      -0.072820    1.409474    1.451773
C       0.717935    0.257248    1.986366
O       0.050391   -0.973913    2.278060
C       0.834620   -0.366173    3.305919
C       2.350167   -0.702701    3.030404
O       2.421365   -1.498816    1.845967
C       2.261021   -0.086334    1.705090
C       3.223430    0.687125    0.866155
H      -1.126764    0.291415   -0.087535
H      -1.108052    2.043662   -0.357860
H       0.343293    1.082246   -0.670989
H       0.528112    2.324174    1.532087
H      -0.950723    1.550233    2.092249
H       0.362257   -0.140686    4.254613
H       3.161635   -0.762315    3.745777
H       3.019119    0.541698   -0.200520
H       3.154818    1.759066    1.078634
H       4.247147    0.358096    1.064262
