11

O      -0.026554   -0.015080   -0.227791
C       0.006250    1.183434   -0.043422
C      -1.224872    1.980096    0.181724
N      -1.320775    3.243428    0.385804
O      -0.120799    3.966203    0.398600
C       1.044893    3.355760    0.207087
C       1.204023    2.024965   -0.012679
C       2.502457    1.475505   -0.205980
N       3.560517    1.034361   -0.362465
H      -2.174105    1.450361    0.178025
H       1.865575    4.063919    0.248785
