17

C      -0.133192    1.529807   -0.012102
C       0.049953    0.013759    0.018089
C       0.753201   -0.507006   -1.239957
N       0.953705   -1.949210   -1.153073
C       1.435614   -2.448213    0.019889
C       1.420484   -1.763160    1.191057
C       0.789122   -0.455683    1.291443
O       0.765478    0.208839    2.313942
H       0.826715    2.036790   -0.160792
H      -0.807756    1.832111   -0.819362
H      -0.539246    1.871805    0.940865
H      -0.938862   -0.468567    0.068738
H       0.162032   -0.284490   -2.133226
H       1.725300    0.005441   -1.344091
H       1.233925   -2.420937   -1.997709
H       1.827872   -3.459913   -0.036389
H       1.820988   -2.207299    2.093099
