15

O       0.031205   -0.039995    0.001718
C      -0.022414    1.173802    0.010537
C      -1.303837    1.909778    0.031549
C      -1.243251    3.250484    0.037247
C      -2.027889    4.552816    0.054832
C      -0.625546    5.264877    0.039105
N      -0.037643    3.912732    0.023532
C       1.136291    3.232328    0.003961
N       1.180459    1.944250   -0.002914
H      -2.229608    1.350092    0.041584
H      -2.645233    4.736723   -0.826013
H      -2.620579    4.727493    0.954294
H      -0.403062    5.851517   -0.855684
H      -0.378075    5.841771    0.933673
H       2.051864    3.823401   -0.005886
