18

O       0.091355   -0.147340    0.385444
C      -0.047548    1.034357    0.126724
N       0.974743    1.879780   -0.200510
C       2.352472    1.466876   -0.278488
C       3.160883    1.760008   -1.572505
C       4.394722    2.042352   -0.672009
C       3.426676    2.250924    0.524801
C      -1.352289    1.687799    0.139271
C      -2.440870    2.198055    0.157908
H       0.742083    2.841400   -0.395840
H       2.368309    0.404683   -0.031879
H       3.225408    0.967137   -2.320784
H       2.804858    2.674222   -2.059511
H       5.013823    1.150962   -0.541820
H       5.040100    2.877444   -0.949262
H       3.145960    3.304221    0.631955
H       3.710301    1.862748    1.505416
H      -3.409394    2.635126    0.178428
