15

N       0.001208    1.332648   -0.000841
C      -0.028218   -0.039868   -0.190870
O       0.814846   -0.640454   -0.830104
N      -1.088297   -0.666743    0.434953
C      -1.148824   -2.117026    0.455554
C      -2.482841   -2.637349    0.182909
C      -3.584597   -3.090847   -0.016114
C      -4.909312   -3.591850   -0.274781
O      -5.243604   -4.747144   -0.146715
H       0.644739    1.795145   -0.624960
H      -0.878210    1.813588    0.114838
H      -1.597013   -0.169296    1.147815
H      -0.441652   -2.458297   -0.309045
H      -0.793135   -2.527977    1.411932
H      -5.626720   -2.815540   -0.611363
