21

C       0.107069    1.561960    0.062795
C      -0.013028    0.039367    0.050724
O       0.733666   -0.558246    1.104162
C      -1.482852   -0.477571    0.026811
C      -2.280167   -0.012897    1.247132
O      -2.153786    0.078946   -1.109124
C      -1.469681   -2.021404   -0.068700
C      -2.852399   -2.632400   -0.137030
O      -3.214574   -3.574290    0.522123
H       1.150999    1.853810   -0.078409
H      -0.500162    2.006229   -0.728877
H      -0.232473    1.978602    1.018359
H       0.458553   -0.339205   -0.868570
H       0.556457   -0.063515    1.911080
H      -2.356433    1.076356    1.269833
H      -3.295999   -0.415916    1.220008
H      -1.808232   -0.359881    2.170830
H      -1.675031   -0.191177   -1.901501
H      -0.945744   -2.301253   -0.996876
H      -0.915010   -2.460967    0.762026
H      -3.534684   -2.146578   -0.868173
