16

N       0.057979    1.225929   -0.387615
C       0.057816    0.027398   -0.038426
O       1.147913   -0.839101    0.269136
C       0.166238   -1.679809    1.016632
C      -0.706705   -2.995306    0.910313
C      -1.908378   -1.934330    1.133458
C      -0.945153   -1.096549    0.206242
C      -0.946364   -2.023078   -1.045463
O      -0.806912   -3.328777   -0.445896
H       1.007694    1.596381   -0.454850
H       0.193189   -1.341721    2.054168
H      -0.563810   -3.880742    1.528427
H      -2.867027   -2.255770    0.721853
H      -2.012573   -1.556363    2.148503
H      -1.893886   -1.954446   -1.589733
H      -0.114262   -1.840524   -1.729401
