21

C       0.189589    1.070818    0.350072
C      -0.038127   -0.426474    0.128848
C      -1.514445   -0.795385    0.139193
O      -1.637043   -2.191760   -0.066620
C      -2.964532   -2.656903   -0.052833
C      -2.926520   -4.174102   -0.084046
O      -2.400668   -4.698064    1.137138
C      -1.060735   -4.845667    1.221716
O      -0.518761   -5.175363    2.233229
H       1.256542    1.309868    0.336748
H      -0.294321    1.669344   -0.429716
H      -0.211228    1.397691    1.315781
H       0.392496   -0.739270   -0.829322
H       0.470115   -1.008043    0.906210
H      -1.976420   -0.514261    1.100401
H      -2.054780   -0.247967   -0.652052
H      -3.491777   -2.322301    0.854741
H      -3.528565   -2.286475   -0.926108
H      -3.936198   -4.579781   -0.181635
H      -2.326677   -4.514323   -0.937209
H      -0.544945   -4.648578    0.265310
