20

C       0.062898    1.434152   -0.057141
C      -0.077611   -0.066150   -0.034348
C      -0.642395   -0.782484    1.139629
N       0.800520   -0.894867    0.840845
C       1.172736   -1.969198   -0.141309
C      -0.084664   -2.320725   -0.986265
C       0.054555   -0.823402   -1.372506
O      -0.626760   -0.211770   -2.418067
C       1.613815   -1.085052   -1.341919
H       0.904367    1.747915   -0.682997
H      -0.843129    1.895054   -0.463471
H       0.227538    1.818427    0.952873
H      -0.838274   -0.195765    2.033442
H      -1.298596   -1.637608    1.032835
H       1.811356   -2.736418    0.291531
H       0.181669   -2.974934   -1.819799
H      -0.997474   -2.689349   -0.519660
H      -0.431514   -0.688101   -3.230994
H       2.274510   -0.245851   -1.117313
H       1.975333   -1.654969   -2.201980
