18

C       0.222255    1.558988    0.007346
C      -0.065976    0.098735    0.117679
C      -1.403756   -0.636821   -0.060056
C      -0.862779   -1.753300    0.914446
N      -0.708298   -3.089021    0.401207
C      -1.337136   -4.175070    0.924844
O      -2.106117   -4.154801    1.863007
C       0.438054   -0.944904    1.030084
O       0.950240   -0.832208   -0.309160
H       1.242564    1.774189    0.335120
H       0.117884    1.897769   -1.029430
H      -0.475342    2.137567    0.621131
H      -2.261460   -0.105115    0.358830
H      -1.628462   -0.954940   -1.080856
H      -1.436978   -1.817995    1.838078
H      -0.075209   -3.208314   -0.375144
H      -1.064131   -5.104511    0.386977
H       1.158923   -0.911694    1.839837
