16

O      -0.195124    1.437960   -0.064516
N       0.009557    0.055617    0.073455
C      -1.094442   -0.589080    0.032109
C      -2.471833   -0.127320   -0.120046
C      -3.315930   -1.165324   -0.044956
C      -2.613984   -2.481967    0.171256
C      -1.114289   -2.114725    0.127214
C      -0.370968   -2.702800   -1.071251
O      -0.840196   -3.482076   -1.857947
H       0.701181    1.784078   -0.000958
H      -2.728231    0.912033   -0.264291
H      -4.394953   -1.094682   -0.124797
H      -2.900261   -2.932675    1.128744
H      -2.854305   -3.211507   -0.609286
H      -0.564127   -2.438740    1.018096
H       0.669730   -2.329116   -1.167587
