19

O      -0.073179    0.034485   -0.267013
C      -0.036071    1.218185   -0.053371
C      -1.247982    2.086467    0.357002
C      -0.704901    3.524300    0.593730
C       0.768337    3.289426    0.764568
C       1.726415    3.683725    1.598438
C       2.994851    2.873970    1.400313
C       2.521930    1.646051    0.562482
C       1.201939    2.118460   -0.081987
H      -2.036051    2.023446   -0.398683
H      -1.659309    1.653896    1.275702
H      -0.898331    4.146226   -0.289981
H      -1.168352    4.023652    1.448003
H       1.638839    4.467220    2.343439
H       3.757514    3.454164    0.861471
H       3.453098    2.577754    2.350608
H       3.264159    1.322215   -0.169632
H       2.322399    0.793116    1.218867
H       1.342539    2.416743   -1.134889
