12

N      -0.069456    1.334346   -0.020568
C       0.058136   -0.025700   -0.019645
O       1.129518   -0.598333   -0.039604
C      -1.214544   -0.733760   -0.006669
C      -2.236874   -1.371376    0.005458
C      -3.489352   -2.115291    0.018736
O      -3.221049   -3.507504    0.042046
H       0.769539    1.888370    0.034026
H      -0.964636    1.779423    0.080377
H      -4.074894   -1.799778    0.898253
H      -4.074978   -1.829146   -0.870680
H      -4.067910   -3.965354    0.045776
