18

O       0.448685    0.149905   -0.504595
C       0.240896    1.302035   -0.230257
N      -0.891575    2.078128   -0.206923
C      -0.262394    3.263593    0.387693
C       1.091882    2.513588    0.274498
O       1.737775    2.345203    1.505623
C       2.901245    1.564243    1.408928
C       4.193347    2.243580    1.033671
C       3.930392    1.802666    2.461357
H      -1.861394    1.840953   -0.355455
H      -0.361115    4.176173   -0.206674
H      -0.545615    3.452179    1.427068
H       1.771188    2.911457   -0.490946
H       2.723797    0.551866    1.055693
H       4.914517    1.695870    0.437431
H       4.151534    3.309120    0.836402
H       3.710067    2.580712    3.183278
H       4.469348    0.950188    2.858366
