20

C       0.105920    1.499073    0.323274
C       0.003785    0.048267   -0.165814
C      -1.407537   -0.501191   -0.134431
C      -1.998227   -1.022834    1.165136
C      -1.744864   -1.978946    0.025767
C      -2.903684   -2.309113   -0.913791
C      -3.268317   -0.961660   -1.503129
C      -2.440657    0.002864   -1.095698
H       1.141848    1.851530    0.298590
H      -0.487641    2.175640   -0.300602
H      -0.259299    1.591987    1.351266
H       0.401168   -0.023833   -1.186827
H       0.644598   -0.587929    0.457277
H      -1.332185   -1.098903    2.020006
H      -3.020626   -0.754178    1.412094
H      -0.951845   -2.707749    0.152082
H      -2.600892   -3.018764   -1.696056
H      -3.749346   -2.774213   -0.389948
H      -4.120796   -0.822102   -2.158628
H      -2.502395    1.044887   -1.390505
