15

O      -0.128893    0.040765    0.332762
C      -0.028455    1.182353    0.045124
O      -1.053078    2.084930   -0.304901
C      -0.053903    3.008549   -0.903172
C       0.337905    4.481928   -0.646989
C       1.670235    4.131191    0.127202
C       1.103868    3.223632    1.218515
C       0.983807    2.339842   -0.045424
O       2.239804    2.899856   -0.514524
H       0.016825    2.754104   -1.960502
H       0.489987    5.010313   -1.589276
H      -0.330136    5.069850   -0.014971
H       2.420823    4.903529    0.286071
H       1.870734    2.823734    1.881257
H       0.199796    3.516489    1.754602
