17

C      -0.137618    1.544586    0.272298
C       0.000236    0.048840    0.052247
C      -1.220918   -0.612502   -0.574257
C      -1.476412   -0.131463   -1.988717
O      -2.535391    0.261888   -2.405272
C       1.364056   -0.498820   -0.309880
C       0.789120   -0.745666    1.064488
H       0.766266    1.961237    0.726580
H      -0.312247    2.077320   -0.669800
H      -0.980408    1.767541    0.936793
H      -1.057698   -1.698195   -0.630627
H      -2.125701   -0.440641    0.018396
H      -0.579085   -0.170108   -2.649827
H       1.421730   -1.338431   -0.994796
H       2.186208    0.202427   -0.403469
H       1.221453   -0.208657    1.902006
H       0.454978   -1.748756    1.307541
