16

C      -0.106073    1.410158   -0.189290
O      -0.051770    0.011277   -0.326727
C      -1.217591   -0.626261    0.158323
C      -1.045275   -2.106718    0.039064
N      -2.049322   -2.872052   -0.383649
N      -1.558608   -4.125147   -0.333627
C      -0.273859   -4.176632    0.095714
C       0.099260   -2.876610    0.353282
H       0.832513    1.813535   -0.577127
H      -0.942330    1.846227   -0.758786
H      -0.216610    1.714860    0.864252
H      -1.384689   -0.340100    1.212404
H      -2.110882   -0.317412   -0.405928
H      -2.146089   -4.889189   -0.619960
H       0.259485   -5.110625    0.177367
H       1.054722   -2.522148    0.701379
