14

N      -0.012698    1.493193   -0.113010
C       0.023795    0.045868   -0.059801
C       0.063152   -0.485245    1.400284
O      -1.326000   -0.870991    1.346901
C      -1.409140   -0.598301   -0.056012
C      -2.515173    0.281042   -0.428855
N      -3.386255    0.960662   -0.765875
C       0.968979   -0.576721   -0.994809
N       1.728002   -1.029736   -1.740224
H       0.906401    1.877731    0.085871
H      -0.285945    1.817892   -1.036552
H       0.721304   -1.344742    1.561118
H       0.246795    0.293326    2.144945
H      -1.467316   -1.519838   -0.648090
