23

C      -0.152979    1.580892   -0.126399
C       0.030131    0.073760    0.099596
C       0.601711   -0.228250    1.491867
C      -1.302176   -0.646440   -0.070748
O      -1.955328   -0.458138   -1.365314
C      -2.263543   -1.855615   -1.423573
C      -1.028575   -2.681814   -1.578647
C       0.160722   -2.272161   -2.420339
C      -1.425958   -2.165750   -0.198289
H       0.803122    2.108129   -0.046407
H      -0.573915    1.778583   -1.115832
H      -0.833271    2.008793    0.620020
H       0.732241   -0.305530   -0.649411
H      -0.072464    0.127867    2.280246
H       0.754610   -1.302261    1.639736
H       1.565774    0.270325    1.632307
H      -1.995111   -0.290487    0.707927
H      -3.270670   -2.132922   -1.714894
H      -1.271147   -3.742301   -1.640797
H       0.166645   -1.192844   -2.582431
H       1.110574   -2.563124   -1.959298
H       0.107427   -2.754622   -3.402402
H      -1.628705   -2.838013    0.624975
