18

O      -0.044657    1.396533    0.359260
C      -0.020815    0.061396   -0.121454
C      -1.381261   -0.583385   -0.028915
C      -1.925999   -1.485371   -1.076219
N      -2.410246   -0.098747   -0.992919
C      -3.679386    0.105516   -0.253026
C      -3.434839   -0.249337    1.205724
O      -3.099106   -1.626084    1.424740
C      -2.032947   -0.669815    1.335431
H      -0.681289    1.867364   -0.191111
H       0.335126    0.010789   -1.160402
H       0.700439   -0.475391    0.504946
H      -1.334552   -1.699153   -1.963300
H      -2.579892   -2.285036   -0.744637
H      -3.954357    1.163643   -0.332233
H      -4.488239   -0.483931   -0.697003
H      -4.004079    0.228820    2.000285
H      -1.438000   -0.529199    2.232494
