17

N       0.045235   -1.090251   -0.049969
C       0.016699    0.065506   -0.051342
C      -0.077917    1.501744   -0.049725
C      -1.295984    2.157714    0.610537
C      -1.465723    3.486917   -0.170865
C      -0.080564    3.711877   -0.787525
C       1.010724    3.633603    0.310887
N       1.269310    2.178201    0.023738
C       0.417861    2.305149   -1.199843
H      -2.168277    1.506072    0.524981
H      -1.118974    2.317314    1.678525
H      -2.220506    3.377836   -0.956755
H      -1.770576    4.315999    0.475110
H      -0.013906    4.525896   -1.508056
H       1.922431    4.180221    0.062349
H       0.722420    3.863725    1.341924
H       0.706177    1.915393   -2.168572
