22

C      -0.027536    1.462876    0.468327
C      -0.037360    0.139654   -0.318932
C      -1.360937   -0.471186   -0.395305
C      -2.467001   -0.945938   -0.450133
C      -3.791515   -1.553775   -0.499988
C      -3.848535   -2.910874    0.222743
N      -5.200313   -3.452006    0.167334
C      -5.509758   -4.299940   -0.981017
C      -5.326786   -4.889471    0.373645
H       0.982631    1.882401    0.499887
H      -0.691328    2.196255    0.002432
H      -0.368327    1.305745    1.495315
H       0.343740    0.315629   -1.333334
H       0.663988   -0.565872    0.145358
H      -4.536688   -0.888850   -0.046862
H      -4.102402   -1.693276   -1.543721
H      -3.102387   -3.594028   -0.220583
H      -3.576614   -2.773564    1.274850
H      -6.502917   -4.182505   -1.404625
H      -4.720570   -4.480477   -1.710011
H      -4.416106   -5.461680    0.545331
H      -6.183644   -5.210327    0.959142
