24

C       1.246698    1.474409   -0.966381
C       0.295689    0.342788   -0.534417
C       0.400546    0.085234    0.976669
C      -1.148770    0.773257   -0.863576
N       0.481735   -0.938980   -1.253166
C       1.366770   -1.147754   -2.386103
C       1.525439   -1.943443   -1.133597
C       2.806928   -1.918424   -0.310709
O       3.588792   -0.736182   -0.393007
H       2.296015    1.200138   -0.851208
H       1.084122    1.737523   -2.016350
H       1.053790    2.371949   -0.369321
H       0.039438    0.952499    1.537855
H      -0.204415   -0.781451    1.259242
H       1.430557   -0.103823    1.295482
H      -1.273719    0.881946   -1.945215
H      -1.860049    0.018161   -0.518513
H      -1.393539    1.731661   -0.392445
H       0.921266   -1.582543   -3.279678
H       2.151652   -0.418858   -2.577427
H       1.116559   -2.957891   -1.121128
H       2.579145   -2.166922    0.735007
H       3.434107   -2.734369   -0.693871
H       3.370512   -0.175040    0.355362
