22

C      -1.513052   -1.094163    2.822830
C      -0.859785   -1.023934    1.458055
C      -0.878331    0.240329    0.629576
C       0.433191   -0.301124    1.142679
C       1.342124    0.448378    2.128259
C       2.092429   -0.555452    3.034107
C       2.361226    1.289703    1.318132
C       0.589517    1.386746    2.976458
N       0.028760    2.149750    3.640362
H      -1.424239   -0.158976    3.378374
H      -2.581282   -1.312215    2.714791
H      -1.077370   -1.893927    3.432550
H      -0.978170   -1.941555    0.885882
H      -1.089712    0.182789   -0.432600
H      -1.264432    1.132495    1.113320
H       1.048377   -0.804987    0.400388
H       2.658346   -1.252274    2.408182
H       2.793251   -0.039932    3.696694
H       1.395430   -1.131541    3.646120
H       1.847897    1.993825    0.658892
H       3.020530    1.853375    1.983514
H       2.975830    0.623995    0.704579
