17

C       0.084644    1.519583    0.009036
C      -0.018870   -0.017032    0.003043
C      -1.396730   -0.492370    0.012620
C      -2.547097   -0.859532    0.020649
C      -3.884428   -1.306281    0.030536
C      -5.096607   -0.626974    0.042308
C      -6.076230   -1.635970    0.047760
N      -5.537921   -2.855107    0.039916
N      -4.215886   -2.632342    0.029522
H       1.134084    1.827475    0.001488
H      -0.406992    1.945527   -0.869494
H      -0.391955    1.937622    0.899569
H       0.497511   -0.416499   -0.879718
H       0.512339   -0.424369    0.873316
H      -5.229733    0.441834    0.046262
H      -7.150704   -1.527194    0.056936
H      -3.577937   -3.410592    0.021987
