16

O       0.067342    0.035898   -0.594406
C       0.175128    1.218285   -0.237748
N       1.266271    1.888402    0.127920
C       2.426931    1.040795    0.075826
C       2.802742    0.754206   -1.413684
N       3.433742    2.157238   -1.399528
H       4.211247    2.386782   -2.015789
H       2.650983    2.815514   -1.490770
C       3.651109    1.987844    0.102967
C      -1.044315    2.068452   -0.223207
N      -2.018789    2.691273   -0.248180
H       2.434084    0.174734    0.743237
H       3.602805    0.029099   -1.576515
H       1.988991    0.643041   -2.124117
H       3.551566    2.921190    0.653894
H       4.617834    1.505160    0.254438
