19

O       0.050740    1.365755    0.220795
C      -0.024419   -0.019212    0.013188
C      -1.461473   -0.524059    0.034861
C      -2.380544   -0.150637   -1.094248
C      -1.919401   -1.582306   -0.955012
C      -0.954747   -2.180409   -1.980596
C       0.530919   -1.854434   -1.687249
C       0.668597   -0.405964   -1.291348
O       1.253265    0.436746   -1.939073
H       0.598546    1.698934   -0.508576
H       0.531549   -0.548067    0.809800
H      -1.898055   -0.557704    1.027981
H      -3.411611    0.092996   -0.865009
H      -1.957708    0.436873   -1.904405
H      -2.660347   -2.278888   -0.575591
H      -1.069678   -3.267963   -2.007891
H      -1.205802   -1.819712   -2.984186
H       0.868049   -2.470302   -0.844482
H       1.167077   -2.063445   -2.549948
