15

C      -0.073554    1.567111   -0.013647
C       0.032792    0.039759   -0.016215
N       0.811823   -0.470106   -1.153885
C       1.764832   -1.165391   -0.678617
N       1.810403   -1.255996    0.725697
C       2.754720   -1.945229    1.483407
O       3.662734   -2.568880    0.998016
C       0.727584   -0.500103    1.239915
O       0.470898   -0.345897    2.403635
H       0.919795    2.024316   -0.000727
H      -0.596389    1.904200   -0.910944
H      -0.622477    1.897182    0.871741
H      -0.976022   -0.390138   -0.062442
H       2.524810   -1.680134   -1.253330
H       2.556930   -1.842021    2.561796
