23

C       0.104489    1.579274    0.059856
C      -0.254040    0.109620   -0.190551
C       0.581280   -0.512788   -1.291196
C       1.938160   -1.109822   -0.995202
C       0.797179   -2.005474   -1.420759
C       0.200174   -2.989596   -0.463765
C      -1.083897   -3.725483   -0.814539
C       0.231424   -4.461949   -0.770601
O       0.843521   -4.848103   -1.968087
H       1.155312    1.682657    0.350098
H      -0.048811    2.181945   -0.842331
H      -0.510838    2.010209    0.856146
H      -0.127875   -0.456385    0.739773
H      -1.318432    0.032146   -0.449272
H       0.505037    0.017167   -2.239112
H       2.758227   -0.941853   -1.684833
H       2.241380   -1.155222    0.047394
H       0.852495   -2.383827   -2.435983
H       0.325852   -2.744115    0.586573
H      -1.821541   -3.908964   -0.040519
H      -1.495266   -3.535281   -1.800982
H       0.403400   -5.142915    0.063275
H       0.317913   -5.556954   -2.352558
