13

N      -0.250844   -1.140891    0.043926
C      -0.109698    0.006185    0.046404
C       0.016503    1.439283    0.045315
C       0.525501    2.219771    1.229595
O       1.505706    1.481311    1.952502
C       2.411804    1.556377    0.817684
C       3.016049    0.285038    0.421198
N       3.553600   -0.682535    0.091805
C       1.330882    2.209619   -0.045623
H      -0.777816    1.949816   -0.493327
H      -0.035497    2.981367    1.756121
H       3.212987    2.269117    1.043315
H       1.504445    2.958893   -0.804314
