19

C       0.015156    1.443336   -0.210527
C       0.059856   -0.046296    0.156526
C       0.747356   -0.272294    1.511044
C      -1.336467   -0.645884    0.159138
C      -1.986879   -1.103595   -1.133157
C      -1.551401   -2.109127   -0.094648
O      -0.407977   -2.885775   -0.319954
H       1.023141    1.870229   -0.245547
H      -0.453776    1.599208   -1.187364
H      -0.559904    2.013612    0.529137
H       0.644083   -0.574498   -0.605479
H       0.821933   -1.340244    1.733473
H       1.757912    0.150115    1.515071
H       0.185628    0.206756    2.322363
H      -2.004837   -0.201596    0.894679
H      -3.046406   -0.932764   -1.291557
H      -1.377826   -1.044078   -2.030305
H      -2.330703   -2.611844    0.478537
H      -0.616431   -3.530369   -1.003755
