20

C       3.059443   -0.736225    0.374870
N       1.663865   -1.153671    0.322264
C       1.225010   -2.127049    1.311178
C       0.750351   -0.714465    1.393181
C       1.156798    0.214634    2.480367
C       1.960783   -0.111141    3.729223
C       0.583930    0.452513    3.868253
O       0.592883    1.871863    3.730164
C       1.070988    1.741483    2.364816
H       3.489020   -0.702449    1.386706
H       3.652830   -1.433303   -0.225392
H       3.155355    0.258352   -0.073204
H       0.558759   -2.908531    0.953932
H       1.948461   -2.456752    2.055220
H      -0.246984   -0.504302    1.005896
H       2.052844   -1.169463    3.949357
H       2.817456    0.496244    4.010798
H      -0.236363   -0.005443    4.409329
H       2.001727    2.294772    2.191297
H       0.303534    2.075078    1.656600
