20

C      -0.055010    1.553228   -0.042311
C       0.031605    0.020183    0.031353
C       0.718208   -0.520606   -1.230565
O       0.975855   -1.907258   -1.148614
C       1.911430   -2.209412   -0.132731
C       1.629141   -1.494345    1.158629
C       0.758080   -0.488884    1.266817
C       0.437392    0.146022    2.593848
H       0.941619    2.007650   -0.009313
H      -0.533490    1.864116   -0.977338
H      -0.641866    1.969260    0.780457
H      -0.996106   -0.373477    0.055525
H       0.081945   -0.376491   -2.109382
H       1.656970    0.036031   -1.400203
H       1.861095   -3.295107    0.014993
H       2.939679   -1.985397   -0.476225
H       2.166815   -1.854172    2.033541
H       0.957212   -0.362573    3.410170
H       0.718097    1.205346    2.623024
H      -0.640016    0.103844    2.801909
