21

C      -0.043532    1.598196   -0.009909
C      -0.050716    0.071155    0.095822
C      -1.452012   -0.533110   -0.051035
O      -2.049348   -0.179484   -1.300522
C      -1.467007   -2.047954    0.126732
C      -1.165142   -2.670052    1.544271
C      -2.562049   -3.303872    1.506404
O      -3.502454   -2.231320    1.373527
C      -2.854801   -2.713706    0.190931
H       0.974635    1.995857    0.038076
H      -0.497803    1.920140   -0.950548
H      -0.618701    2.049468    0.805895
H       0.600102   -0.361678   -0.679504
H       0.375147   -0.242636    1.056751
H      -2.117506   -0.097568    0.703273
H      -1.476152   -0.512198   -2.000857
H      -0.839326   -2.522781   -0.638073
H      -0.348001   -3.394348    1.520652
H      -1.006683   -1.967355    2.366528
H      -2.915327   -4.216522    1.971833
H      -3.491202   -3.048699   -0.619136
