17

O      -0.023658    1.422097   -0.041133
C       0.048397    0.015116   -0.033795
C       0.767862   -0.596911    1.213678
C      -0.161924   -1.705239    1.689036
O       0.335278   -2.794457    2.398100
C      -1.625273   -1.344256    1.908638
O      -1.950847   -0.102265    1.274800
C      -1.346749   -0.617970    0.031132
C      -1.203482   -2.022759    0.636321
H      -0.627869    1.651025    0.678528
H       0.559487   -0.274421   -0.957903
H       1.741149   -1.024573    0.957282
H       0.931384    0.183218    1.964363
H       0.538945   -2.503067    3.293804
H      -2.222788   -1.674314    2.750795
H      -1.995661   -0.442635   -0.827368
H      -1.425282   -2.992502    0.215184
