17

C       0.000150    1.393652   -0.013242
O      -0.025853   -0.030739    0.016931
C      -1.239717   -0.621745    0.032427
N      -2.329344    0.136627    0.016936
C      -3.503582   -0.512716    0.031912
C      -3.640376   -1.885347    0.061510
C      -2.473369   -2.676715    0.077477
N      -2.552884   -4.054671    0.161252
C      -1.245725   -2.019411    0.060250
H       1.057234    1.665121   -0.020826
H      -0.496923    1.781258   -0.907215
H      -0.493701    1.818561    0.865388
H      -4.390017    0.117453    0.017238
H      -4.622889   -2.344246    0.076725
H      -3.413504   -4.469848   -0.160404
H      -1.735085   -4.566657   -0.132068
H      -0.306539   -2.560184    0.071211
