20

C      -0.093342    1.496402   -0.074935
C       0.030751   -0.028799   -0.062077
C       0.885659   -0.549231   -1.211673
O       0.655022   -0.477942    1.145001
C      -0.185191   -0.608067    2.274496
C      -0.859002   -1.975815    2.368522
C       0.684481   -0.308929    3.493263
O       0.465754   -0.717274    4.603090
H       0.898925    1.955203   -0.020207
H      -0.583248    1.835807   -0.993185
H      -0.685639    1.860947    0.770057
H      -0.973566   -0.473324   -0.135034
H       1.901749   -0.148979   -1.137122
H       0.945310   -1.640167   -1.181808
H       0.464879   -0.246434   -2.175057
H      -0.958274    0.181845    2.274257
H      -0.105084   -2.766321    2.320440
H      -1.390056   -2.060222    3.319657
H      -1.570312   -2.121341    1.551247
H       1.551497    0.346829    3.257805
