17

O      -0.054018    0.034226   -0.035808
C      -0.050838    1.232265   -0.010352
C      -1.259727    2.191313   -0.015805
N      -1.416676    2.608732    1.424081
C      -0.369384    3.653402    1.171848
C       1.016525    3.011585    1.362181
C       1.150390    2.193597    0.039197
N       0.701956    3.130521   -1.018929
C      -0.558091    3.524347   -0.394077
H      -2.140267    1.808742   -0.530238
H      -2.322022    3.062919    1.523333
H      -0.513127    4.601937    1.690352
H       1.807408    3.769749    1.395958
H       1.062043    2.405811    2.269702
H       2.112386    1.723115   -0.154223
H       1.340852    3.917838   -1.104044
H      -1.122032    4.285887   -0.929795
