23

C       0.093259    1.571252    0.009153
C       0.187464    0.045282   -0.062684
C       0.551528   -0.597769    1.284849
C       0.630356   -2.096746    1.230490
C      -0.524849   -3.086560    1.048429
C       0.474547   -4.183761    1.502640
C       1.514334   -4.243726    0.349646
C       1.909317   -2.833133    0.780147
C       1.346114   -3.041203    2.169329
H       1.045421    2.012362    0.325385
H      -0.166738    2.003193   -0.962380
H      -0.670083    1.887891    0.728901
H      -0.768617   -0.366025   -0.410823
H       0.933860   -0.247104   -0.811710
H       1.514071   -0.195705    1.630523
H      -0.189778   -0.296985    2.039099
H      -1.305605   -2.912903    1.795984
H      -0.984427   -3.201780    0.058646
H       0.123696   -5.092689    1.987139
H       2.312854   -4.961029    0.560836
H       1.133339   -4.406390   -0.666125
H       2.794508   -2.271757    0.506388
H       1.773171   -2.899750    3.152100
