17

O       0.065802    1.175526   -0.566050
C      -0.007508   -0.123880   -0.027337
C       0.149308   -0.263674    1.521523
C      -1.340390   -0.679076    1.622965
O      -1.664946   -1.859877    2.293497
C      -2.342242    0.511476    1.753417
C      -2.495910    0.496474    0.218482
O      -3.212795    1.079740   -0.538306
C      -1.477303   -0.636258    0.053151
H       0.985983    1.458134   -0.553985
H       0.636073   -0.821049   -0.577610
H       0.816818   -1.082476    1.801451
H       0.442727    0.648816    2.048310
H      -1.582832   -1.704748    3.241192
H      -3.272456    0.214125    2.248981
H      -1.978001    1.444479    2.192124
H      -1.747295   -1.484541   -0.574881
