17

C      -0.028246    1.568806   -0.002006
C      -0.083571    0.069795    0.153741
N       1.140792   -0.686376   -0.199942
C       0.699232   -0.650439    1.177838
C       1.510374   -0.164386    2.372759
O       0.983743   -1.249403    3.186127
C       0.267300   -1.822183    2.079115
C      -1.169255   -1.968566    2.327515
N      -2.309151   -2.078241    2.484013
H       0.958116    1.950880    0.274753
H      -0.220283    1.855894   -1.040591
H      -0.781741    2.051931    0.628562
H      -1.036136   -0.390135   -0.107264
H       0.916125   -1.576179   -0.639273
H       2.596566   -0.236517    2.251009
H       1.242820    0.814747    2.783894
H       0.681206   -2.797677    1.787234
