18

C      -0.152384    1.512182    0.077170
C       0.002835    0.008403    0.051078
O      -1.156173   -0.694534   -0.297733
C       1.341825   -0.609911   -0.350108
C       0.858625   -0.681200    1.070627
C       1.469073   -0.144935    2.361880
C       0.993777   -1.491868    2.947928
O       0.479986   -1.919135    1.665076
H       0.756704    2.004572    0.435281
H      -0.360804    1.897840   -0.928759
H      -0.983891    1.800505    0.728576
H      -1.303568   -0.570099   -1.242010
H       1.287354   -1.540854   -0.905437
H       2.178948    0.036526   -0.597866
H       2.551635   -0.004094    2.340127
H       0.994813    0.746498    2.776741
H       1.781665   -2.160712    3.311476
H       0.199318   -1.426278    3.700034
