17

C      -0.032454    1.577144    0.086178
C       0.042365    0.070652    0.030715
O      -1.129865   -0.563706   -0.410530
C       1.284071   -0.719298   -0.303588
C       2.511741   -0.115583    0.363433
O       1.839718   -0.045770    1.650471
C       0.712008   -0.735900    1.132500
C       0.067063   -1.811841    1.905260
O       0.415192   -2.144107    3.012591
H       0.811447    1.997308    0.635513
H      -0.042657    2.004555   -0.923304
H      -0.955086    1.872785    0.593369
H      -1.202853   -0.430425   -1.362448
H       1.270450   -1.516851   -1.035167
H       3.361354   -0.804570    0.414906
H       2.849303    0.866444    0.014369
H      -0.778785   -2.291157    1.374606
