16

O      -0.148862    1.416700    0.074363
C       0.015321    0.050126    0.047530
C      -0.083473   -0.841508   -1.173817
C       0.951694   -1.942435   -1.086653
C       1.752476   -1.789239    0.154492
C       0.879372   -0.836425    0.997736
C      -0.229882   -1.922954    0.896410
C      -1.064323   -1.008072   -0.014099
N       0.674198   -2.839920    0.070518
H       0.588846    1.823044   -0.394995
H      -0.437753   -0.439344   -2.113568
H       1.342120   -2.431529   -1.970524
H       2.799402   -2.043017    0.281623
H       1.219326   -0.432898    1.947330
H      -0.675171   -2.405087    1.762591
H      -2.139275   -0.930369   -0.115311
