15

O       0.359545   -0.109166    0.179982
C       0.169731    1.068201    0.031828
C       1.261541    2.110652   -0.169098
C       1.402172    2.983049    1.123752
C       2.861857    2.722656    1.559002
C       3.210916    1.427052    0.817138
O       2.519623    1.529964   -0.423684
H      -0.859083    1.503466    0.059400
H       0.983895    2.719900   -1.039242
H       1.208364    4.037690    0.921751
H       0.693492    2.663755    1.894467
H       3.509905    3.534238    1.216554
H       2.970132    2.635267    2.642548
H       4.275126    1.315822    0.595851
H       2.871597    0.542229    1.373440
