23

C       0.047316    1.480558    0.003235
C       0.056976   -0.016999   -0.014742
C      -0.015523   -0.799730   -1.095789
C      -0.026050   -2.267272   -0.741396
C       0.504791   -2.258599    0.711378
O       1.911347   -2.463916    0.734153
C       0.086005   -0.856255    1.268225
C       1.054474   -0.329078    2.335794
C      -1.336418   -0.937837    1.865304
H       0.956571    1.884652    0.464285
H      -0.030424    1.890257   -1.007623
H      -0.794993    1.869285    0.589699
H      -0.100016   -0.435747   -2.114974
H      -1.039221   -2.687756   -0.807532
H       0.613256   -2.890915   -1.375639
H       0.094386   -3.067932    1.322158
H       2.301335   -1.822462    0.128685
H       2.070097   -0.216300    1.949789
H       0.721984    0.643312    2.714619
H       1.103947   -1.018524    3.184603
H      -1.338923   -1.547412    2.775755
H      -1.709685    0.056422    2.132204
H      -2.044893   -1.379167    1.157504
