15

N       0.082321    1.387826    0.162461
C      -0.014291    0.012284    0.054988
C      -1.166174   -0.698091    0.028843
O      -2.371443   -0.072390    0.023550
C      -1.169925   -2.144204    0.001947
N      -2.332954   -2.712704   -0.025336
C       0.158507   -2.733444   -0.007170
C       1.248857   -1.949833    0.005839
O       1.204130   -0.598707    0.042288
H       0.839891    1.786129   -0.377623
H      -0.801862    1.840970   -0.026880
H      -3.006226   -0.817302   -0.008347
H      -2.267799   -3.728177   -0.055923
H       0.280763   -3.809977   -0.032686
H       2.271424   -2.303295   -0.007972
