16

O       1.153008    1.616755    0.549237
C       0.460867    0.578281   -0.108716
C       1.189809    0.210907   -1.407388
O       0.477334   -0.801080   -2.118864
C      -0.091326   -0.475633   -3.303308
O      -0.731151   -1.252335   -3.940194
C       0.250609   -0.663889    0.780753
C      -0.484769   -0.358136    2.004253
N      -1.067885   -0.117520    2.971750
H       1.973538    1.266724    0.915342
H      -0.519285    0.995829   -0.363314
H       1.307655    1.114599   -2.016044
H       2.187691   -0.186871   -1.186403
H       0.113249    0.571519   -3.599309
H      -0.285742   -1.429620    0.211364
H       1.224513   -1.095048    1.049650
