16

C      -0.021711    1.504759    0.052310
C      -0.042333    0.008115   -0.026195
C      -0.154152   -0.676696   -1.175892
C      -0.040084   -2.141963   -1.206870
O      -0.052625   -2.792628   -2.232547
C       0.182913   -2.805097    0.152095
O      -0.372358   -2.066625    1.222941
C       0.090604   -0.738358    1.279506
H       0.881116    1.855732    0.568116
H      -0.050567    1.961099   -0.939355
H      -0.875314    1.875810    0.633315
H      -0.269325   -0.178689   -2.134439
H      -0.289894   -3.789146    0.154239
H       1.270634   -2.949958    0.287268
H       1.147989   -0.698084    1.608312
H      -0.499215   -0.240849    2.057682
