15

O      -0.268040    1.381145    0.095366
C      -0.005420    0.007140    0.055851
C       0.850633   -0.326755   -1.162539
O       1.185289    0.526257   -1.947370
C       0.707000   -0.463328    1.299209
N       0.740780   -1.758077    1.610325
N       1.483832   -1.807260    2.731995
C       1.912436   -0.588562    3.140288
C       1.430241    0.321097    2.224162
H       0.145019    1.742666   -0.705897
H      -0.935875   -0.577102   -0.051298
H       1.145763   -1.387618   -1.269128
H       1.637296   -2.697007    3.175320
H       2.507633   -0.466988    4.031450
H       1.553718    1.390079    2.220245
