15

C      -0.314518    1.391891   -0.381762
O      -0.239011    0.114080   -1.033939
C       0.919479   -0.540981   -0.887279
O       1.859759   -0.150947   -0.243991
C       0.890998   -1.880853   -1.598841
C      -0.193222   -2.881885   -1.137276
C      -0.717344   -2.706321   -2.563255
O      -1.604197   -3.113293   -3.235504
O       0.274352   -1.820696   -2.922622
H      -0.182202    1.278950    0.696884
H       0.459508    2.060077   -0.765992
H      -1.305825    1.781139   -0.610401
H       1.907994   -2.267098   -1.658472
H       0.156528   -3.887646   -0.902493
H      -0.875139   -2.529603   -0.363121
