18

O       0.122190    1.327969   -0.287390
C       0.149409   -0.004335    0.201849
C      -1.232117   -0.616029    0.203031
N      -1.942307   -1.070157   -1.013564
C      -0.940084   -1.771545   -1.896741
C      -0.592613   -2.818785   -0.816123
C      -1.554620   -2.063773    0.114345
C      -2.497452   -2.701408    0.972616
C      -3.263403   -3.270656    1.705665
H      -0.344580    1.319650   -1.129997
H       0.871395   -0.619644   -0.351138
H       0.509219    0.059672    1.234196
H      -1.926054   -0.059275    0.829568
H      -1.462869   -2.190371   -2.757644
H      -0.130481   -1.130821   -2.259911
H      -0.964967   -3.813823   -1.061047
H       0.443825   -2.903301   -0.479463
H      -3.947312   -3.763026    2.351767
