14

O      -0.109794   -0.025942   -0.001165
C      -0.039835    1.171929    0.008120
N       1.163706    1.881008    0.000519
C       2.441240    1.315715   -0.018481
C       3.346729    2.328162   -0.020297
C       2.614094    3.570796   -0.001712
C       3.172860    4.920261    0.003224
O       4.357428    5.170075   -0.007819
C       1.277452    3.255463    0.010674
H      -0.911983    1.849362    0.023417
H       2.541094    0.243753   -0.028485
H       4.421288    2.239615   -0.033122
H       2.413327    5.734096    0.018694
H       0.400703    3.884317    0.025747
