16

C       0.730229    1.433132   -0.014472
N       0.899673    0.001657   -0.185016
C       0.207582   -0.660397   -1.156708
N      -0.500042   -0.054644   -2.030056
C       0.436121   -2.161473   -1.118821
C       1.815072   -2.708539   -1.105579
O       1.015967   -2.705844    0.074102
C      -0.616013   -2.965472   -1.713153
N      -1.450477   -3.598666   -2.200325
H       0.948887    1.941663   -0.955946
H      -0.294596    1.698117    0.274482
H       1.424581    1.780764    0.753161
H       1.148237   -0.549904    0.621387
H      -0.905177   -0.703597   -2.701760
H       2.000704   -3.687507   -1.540815
H       2.638423   -1.998731   -1.116335
