17

C       0.001077    1.487346   -0.023169
O       1.178582    0.666585   -0.015857
C      -0.101282    0.030093    0.011865
C      -0.475077   -0.811437    1.239379
C      -0.659889   -2.214858    0.661635
C      -1.618849   -2.359435   -0.503762
O      -1.908613   -1.081019   -1.076582
C      -0.467326   -0.825434   -1.181777
C      -0.148614   -2.279828   -0.769986
H      -0.172711    2.058918    0.887534
H      -0.188460    2.026880   -0.950452
H       0.341196   -0.782927    1.966496
H      -1.381840   -0.437580    1.723904
H      -0.529816   -3.085424    1.294432
H      -2.353937   -3.146819   -0.620594
H      -0.179320   -0.445669   -2.162049
H       0.572723   -2.966746   -1.187879
