19

C       0.059146    1.537469    0.164006
C      -0.020232    0.021471   -0.036379
N       0.664413   -0.432366   -1.236198
C       0.069273   -0.756869   -2.456903
N      -1.338422   -0.685111   -2.573722
C       1.063699   -1.155062   -3.314745
C       2.309891   -1.074431   -2.617805
C       2.012820   -0.619636   -1.357044
O       2.782536   -0.339461   -0.267404
H       1.099060    1.861678    0.255981
H      -0.394612    2.066745   -0.679494
H      -0.473684    1.826458    1.075774
H       0.420851   -0.493296    0.822419
H      -1.059094   -0.299833   -0.135460
H      -1.649121    0.159415   -3.044907
H      -1.701288   -1.474858   -3.093805
H       0.919869   -1.470843   -4.337186
H       3.291788   -1.310135   -2.998642
H       3.695332   -0.545023   -0.489355
