21

C      -0.149355    1.550375   -0.089713
C       0.021030    0.038171    0.008512
O      -1.256421   -0.569626   -0.110299
C       1.219201   -0.677701   -0.711264
C       2.147212   -0.115491    0.403749
C       0.870912   -0.613808    1.148230
C       0.582802   -0.580278    2.626783
O       1.529706   -1.321047    3.386239
C       0.965242   -1.888278    0.234996
H       0.777686    2.110884    0.032314
H      -0.558402    1.813369   -1.074156
H      -0.863620    1.893576    0.665043
H      -1.694549   -0.193497   -0.880317
H       1.423213   -0.712157   -1.783291
H       3.050385   -0.696620    0.598714
H       2.367864    0.952185    0.413815
H       0.643172    0.448236    3.000796
H      -0.444698   -0.934187    2.806236
H       1.488613   -2.233777    3.082647
H       0.050492   -2.456084    0.080607
H       1.830703   -2.533011    0.410851
