21

C      -0.013817    1.580256    0.305953
N       0.066411    0.145879    0.150337
C      -1.183618   -0.638886    0.308310
C      -0.414445   -1.655407    1.151338
C      -0.857300   -2.676965    2.193861
C       0.262865   -3.592365    1.624505
N       0.482608   -2.665439    0.464034
C       1.665911   -1.752488    0.633711
C       0.757784   -0.637167    1.205628
H       0.988864    2.017853    0.253855
H      -0.605583    2.006896   -0.511132
H      -0.477407    1.899198    1.260270
H      -1.949162   -0.115205    0.906214
H      -1.631611   -0.991394   -0.627170
H      -0.786947   -2.381007    3.243155
H      -1.864528   -3.059932    2.006825
H       1.138001   -3.686944    2.278799
H      -0.046429   -4.594447    1.314268
H       2.409565   -2.143540    1.339303
H       2.155510   -1.503981   -0.311677
H       1.070662   -0.068596    2.088092
