19

C      -0.276064    1.531126    0.088733
C       0.068955    0.056040    0.037173
C       1.153068   -0.485114   -0.969486
C       1.886641    0.457488   -1.798976
N       2.465413    1.232729   -2.433257
C       1.873156   -1.046174    0.273034
C       2.455679   -2.424836    0.342200
C       2.158601    0.044884    1.221966
N       0.797261   -0.534904    1.215406
H       0.607047    2.172848    0.135486
H      -0.843082    1.817959   -0.802433
H      -0.895842    1.730786    0.968460
H      -0.846200   -0.527376   -0.089471
H       0.744701   -1.275265   -1.603704
H       3.381381   -2.483482   -0.241598
H       2.688154   -2.689070    1.377385
H       1.758384   -3.172307   -0.051383
H       2.711101   -0.215807    2.119128
H       2.328293    1.058660    0.870976
