20

C      -0.076856    1.522035   -0.004795
C       0.096439    0.037456    0.026282
N      -0.811314   -0.864994    0.780645
C       0.656123   -0.880662    1.038505
C       1.363793   -1.721977   -0.066094
C       2.770760   -2.210270    0.074216
O       2.884125   -3.300260    0.982699
C       0.376435   -2.255396   -1.078741
C       0.758827   -0.798554   -1.117742
H       0.836808    2.017031   -0.352298
H      -0.890194    1.813639   -0.680349
H      -0.309764    1.910623    0.992584
H      -1.232717   -0.306833    1.523365
H       1.055748   -0.691183    2.027070
H       3.169142   -2.468751   -0.920717
H       3.415887   -1.425083    0.486750
H       2.238706   -3.961385    0.710321
H       0.824151   -2.852418   -1.868788
H      -0.620367   -2.550271   -0.778026
H       1.255758   -0.343655   -1.965998
