14

N       0.115263    1.111729    0.523608
C      -0.006001   -0.138989    0.016964
N      -1.166336   -0.721721    0.038623
C      -1.368315   -1.979563   -0.480807
N      -0.583575   -2.996676   -0.537616
C       0.722617   -2.863823   -0.038871
N       1.255288   -3.578252    0.860743
N       1.522338   -1.910798   -0.721880
C       1.200106   -0.683322   -0.663611
H       1.022829    1.512278    0.687472
H      -0.671497    1.492381    1.025897
H      -2.387596   -2.130449   -0.838082
H       0.559411   -4.235043    1.218854
H       1.833342    0.042118   -1.182129
