19

C       0.069938    1.582135   -0.190872
C       0.061704    0.071080   -0.073022
C       0.354508   -0.722346   -1.347425
C       0.285867   -1.999640   -0.979004
C      -0.044446   -1.926527    0.499904
C       0.779771   -0.728614    1.102230
C      -0.394728   -0.467493    2.058327
O      -0.452194    0.809500    2.653323
C      -1.068490   -0.748250    0.690112
H       1.047282    1.929148   -0.546876
H      -0.675417    1.908322   -0.926377
H      -0.142396    2.066960    0.760127
H       0.567527   -0.288205   -2.315137
H       0.424856   -2.902290   -1.557031
H      -0.163233   -2.839655    1.084309
H       1.847776   -0.726498    1.336869
H      -0.553272   -1.250032    2.813922
H      -1.296317    0.888374    3.108185
H      -2.135368   -0.771422    0.446410
