18

C      -0.273461    1.612899    0.254376
C      -0.092497    0.109036    0.144439
C      -1.375543   -0.620327   -0.278663
O      -1.719187   -0.267673   -1.602120
O       0.963242   -0.247052   -0.822042
C       1.733166   -0.962629    0.175897
C       0.716180   -0.583239    1.219361
N       0.532177   -0.713373    2.461211
O       1.574857   -1.448031    3.050235
H       0.687690    2.109960    0.403772
H      -0.737110    1.991574   -0.660192
H      -0.924973    1.847767    1.101834
H      -1.229265   -1.705966   -0.173338
H      -2.209823   -0.328115    0.366816
H      -0.931493   -0.446801   -2.131894
H       1.817849   -2.035295   -0.038108
H       2.737372   -0.544042    0.313175
H       1.317169   -1.464043    3.978571
