17

C       0.805429    1.352973   -0.212171
C       0.062353    0.033820   -0.045660
C       0.273100   -0.979092   -1.191253
C       1.435404   -1.857280   -0.683302
C       2.753424   -1.445410   -1.148415
C       3.835896   -1.097483   -1.537623
C       1.328745   -1.700999    0.855610
O       1.836893   -2.384739    1.691508
O       0.535578   -0.643250    1.143053
H       1.866578    1.181547   -0.413866
H       0.380705    1.917993   -1.048037
H       0.714206    1.956001    0.694976
H      -1.000888    0.222978    0.125138
H      -0.620515   -1.595775   -1.317428
H       0.491500   -0.490724   -2.141338
H       1.286233   -2.915369   -0.916735
H       4.798398   -0.801580   -1.875489
