19

C      -0.401662    1.640130   -0.323943
N      -0.303167    0.194079   -0.306358
C       0.871345   -0.464933   -0.538205
O       1.916854    0.108001   -0.787343
C       0.743143   -1.966148   -0.436639
N       1.662919   -2.771807   -1.257071
C       1.784681   -2.835428    0.201559
C       3.095201   -2.331729    0.763932
O       4.122682   -3.287736    0.536562
H      -0.730128    2.029931    0.646084
H       0.592581    2.028449   -0.547162
H      -1.100915    1.983084   -1.094605
H      -1.132226   -0.342793   -0.114944
H      -0.279875   -2.329274   -0.342769
H       1.173347   -3.585095   -1.620008
H       1.403058   -3.730408    0.692490
H       3.333481   -1.358750    0.324896
H       3.016570   -2.218649    1.850505
H       4.241869   -3.328144   -0.418963
