15

N      -0.015442    1.424935    0.120190
C       0.018010    0.021732    0.043752
C      -1.150195   -0.742394    0.042450
N      -1.180190   -2.076039    0.032156
C      -0.022772   -2.739531    0.030690
N      -0.099069   -4.131293    0.088690
C       1.211769   -2.071577    0.027028
C       1.225330   -0.688384    0.031359
H       0.760953    1.874533   -0.346339
H      -0.886950    1.822219   -0.204676
H      -2.119096   -0.243595    0.045815
H      -1.014049   -4.470570   -0.174305
H       0.645028   -4.623602   -0.383628
H       2.140144   -2.633185    0.026945
H       2.170145   -0.151978    0.032222
