8

C      -0.018704    1.525582    0.010433
C       0.002104   -0.003882    0.001999
H       0.994873    1.939743    0.002941
H      -0.542076    1.923611   -0.865117
H      -0.525241    1.914173    0.900024
H       0.525487   -0.401908    0.877544
H      -1.011477   -0.418034    0.009508
H       0.508626   -0.392470   -0.887601
