16

C       0.261802    0.962543    0.384137
O      -0.455811    0.064399   -0.446922
C       0.344682   -0.568096   -1.384932
C       1.401015   -1.590126   -1.020965
O       1.048743   -2.279282    0.174251
C      -0.162516   -2.794506   -0.445200
C       0.117289   -2.009873   -1.728840
O      -0.101247   -2.494337   -3.001075
H       1.042258    0.438337    0.949076
H       0.723875    1.772523   -0.199357
H      -0.460027    1.396530    1.079688
H       0.630799    0.037732   -2.250078
H       2.445589   -1.551159   -1.308050
H      -0.086144   -3.876114   -0.597164
H      -1.061886   -2.538814    0.122299
H      -0.885934   -2.064888   -3.359655
