16

N       0.044780    1.352371   -0.271965
C      -0.087076   -0.009319   -0.019199
N      -1.237476   -0.532389    0.125021
C      -1.335508   -1.987392    0.105191
C      -0.634755   -2.653131    1.264790
C       0.659319   -2.491053    1.554246
C       1.629604   -1.695801    0.776077
O       2.827064   -1.903906    0.828234
N       1.155623   -0.664956   -0.041532
H       0.754596    1.825839    0.271309
H      -0.850868    1.819523   -0.230328
H      -2.396374   -2.248639    0.121573
H      -0.924156   -2.389106   -0.835617
H      -1.226508   -3.314048    1.893906
H       1.121912   -3.029610    2.374162
H       1.915451   -0.160010   -0.480465
