14

C      -0.005717    1.428982   -0.079111
N       0.021020   -0.015421   -0.004836
N       0.030851   -0.786834   -1.128908
C       0.054431   -2.018498   -0.631958
N       0.060288   -2.088231    0.741655
C       0.038855   -0.819814    1.076163
O       0.033965   -0.310375    2.312574
C       0.072137   -3.168462   -1.461897
C       0.087290   -4.151036   -2.154465
H       0.875730    1.793309   -0.612591
H      -0.904191    1.760791   -0.605378
H      -0.008838    1.825206    0.936568
H       0.049077   -1.059074    2.922449
H       0.100668   -5.016946   -2.768926
