15

O       0.276080    1.320284    0.393255
C       0.048042   -0.013351    0.142270
C      -0.258295   -0.574948   -1.225944
C      -1.242701   -0.762448   -0.102073
N      -0.797102   -1.924863    0.713229
C       0.431001   -1.146297    1.105542
C       1.747113   -1.857763    0.885901
O       2.742051   -1.295525    0.501541
H       1.132912    1.549742    0.013458
H      -0.538372    0.191641   -1.941617
H       0.272710   -1.430182   -1.635245
H      -2.276558   -0.443868   -0.135869
H      -1.403686   -2.042589    1.519195
H       0.391117   -0.793717    2.144742
H       1.736583   -2.949493    1.102297
