19

C       0.060970    1.366494   -0.192033
C       1.451205    1.849092    0.249715
N       2.094674    0.576277    0.498677
C       3.427497    0.454525    1.077479
C       3.463163   -0.718881    2.064489
C       2.685093   -1.919442    1.503429
N       1.306953   -1.586362    1.157460
C       1.147240   -0.406755    0.727446
O      -0.086796    0.074201    0.404166
H      -0.753784    2.004280    0.155700
H       0.000068    1.269707   -1.282794
H       1.957071    2.424517   -0.532943
H       1.406326    2.473215    1.157216
H       4.168737    0.311820    0.279361
H       3.682526    1.392939    1.586596
H       4.502353   -0.985867    2.279979
H       2.998068   -0.413444    3.008825
H       3.208452   -2.319790    0.620689
H       2.669626   -2.727838    2.241873
