17

C      -0.009786    1.549678    0.023034
O       1.311879    2.086477    0.013615
C       2.323287    1.074864   -0.031541
C       2.125810    0.133145    1.146411
C       0.912609   -0.426073    1.156130
C       0.041954    0.000882   -0.014985
C       0.806920   -0.395343   -1.292023
O       1.121792    0.653083   -2.222086
C       2.128284    0.218680   -1.302768
H      -0.523214    1.880482    0.934802
H      -0.544925    1.931355   -0.852143
H       3.277958    1.601666   -0.018096
H       2.879528    0.003131    1.913775
H       0.537049   -1.071850    1.941509
H      -0.965139   -0.418792    0.019956
H       0.611346   -1.368733   -1.735155
H       2.998544   -0.263843   -1.741780
