23

C      -0.285495    1.403294   -0.287806
C       1.165978    1.246514    0.089390
C       0.266311    0.033207    0.023201
C      -0.145749   -0.688054    1.276207
C      -1.364510   -1.661393    1.211015
C      -0.574300   -2.686486    2.074587
C       0.696891   -1.877979    1.785666
C       1.936764   -2.417727    1.130249
C       1.991594   -1.863340    2.537131
H      -0.951758    1.856689    0.439106
H      -0.526892    1.641080   -1.317897
H       1.916311    1.377797   -0.682532
H       1.474060    1.595813    1.069631
H       0.417414   -0.618963   -0.833803
H      -0.287817    0.042822    2.083330
H      -2.314169   -1.296165    1.608257
H      -1.529860   -2.024760    0.192533
H      -0.863119   -2.654352    3.130437
H      -0.587325   -3.728724    1.743536
H       2.018661   -3.492546    0.999597
H       2.396924   -1.834640    0.339118
H       2.486813   -0.908553    2.686366
H       2.114266   -2.561506    3.359732
