19

C      -0.025943    1.542801   -0.065228
C       0.002053    0.015077   -0.007346
O      -1.324339   -0.513327    0.097607
C       0.756384   -0.617676   -1.208030
O       1.520318   -1.731912   -0.725653
C       1.561800   -1.705050    0.680040
C       2.252391   -0.502782    1.264078
O       2.989896    0.337446    0.423855
C       0.734773   -0.559506    1.195190
H       0.989791    1.943678   -0.052468
H      -0.523276    1.890316   -0.980171
H      -0.577456    1.939236    0.791780
H      -1.864382   -0.084583   -0.574915
H       0.049514   -0.986186   -1.958844
H       1.426926    0.112649   -1.673977
H       1.617332   -2.694590    1.118674
H       2.672084   -0.595365    2.264146
H       3.353661   -0.219527   -0.274970
H       0.171078   -0.613697    2.118345
