18

O       0.005275    1.472382   -0.160107
C       0.073298    0.063739   -0.089768
C      -1.319730   -0.536060    0.044715
O      -2.057075   -0.168449   -1.113891
C      -3.145647   -1.069912   -1.218393
C      -2.537255   -2.444909   -0.910284
C      -1.431081   -2.101550    0.135214
C      -0.182836   -2.813056   -0.125506
N       0.800790   -3.385461   -0.329675
H      -0.582228    1.682268   -0.895059
H       0.567690   -0.369964   -0.971427
H       0.676224   -0.185933    0.788597
H      -1.805645   -0.108871    0.935279
H      -3.933853   -0.814195   -0.492074
H      -3.560060   -0.990097   -2.225520
H      -3.261564   -3.163498   -0.522580
H      -2.082485   -2.866454   -1.808711
H      -1.755583   -2.375918    1.142740
