21

C      -0.085562    1.568737    0.130986
C       0.007346    0.045346   -0.007859
C       0.727277   -0.471846   -1.273307
C       0.001403   -0.027737   -2.563196
C       2.199555   -0.005158   -1.321875
C       0.718544   -2.010044   -1.230596
O       0.218358   -2.654783   -0.334887
C       1.357227   -2.699030   -2.349132
C       1.876427   -3.294811   -3.257700
H       0.900436    2.041648    0.176169
H      -0.638954    2.027221   -0.694506
H      -0.611047    1.826213    1.055737
H       0.515902   -0.369268    0.869145
H      -1.000174   -0.383763    0.012611
H       0.054124    1.058925   -2.672736
H       0.460394   -0.474387   -3.449226
H      -1.054573   -0.316562   -2.543556
H       2.732267   -0.277010   -0.404695
H       2.728436   -0.451647   -2.168125
H       2.249216    1.081401   -1.433867
H       2.332757   -3.830693   -4.054165
