17

C      -0.149769    1.513059   -0.004900
C       0.032080   -0.005008   -0.015941
O       0.776395   -0.433262   -1.154314
C       0.802994   -0.509809    1.193591
C       0.046781   -0.534568    2.539759
O       0.082568   -1.973336    2.590148
C       0.848869   -2.042223    1.366685
H       0.824268    2.012545   -0.010972
H      -0.709662    1.845220   -0.886655
H      -0.706297    1.840750    0.879438
H      -0.961763   -0.485866   -0.014575
H       0.312470   -0.137625   -1.943962
H       1.781158   -0.023226    1.225864
H       0.574165   -0.078989    3.387504
H      -0.981808   -0.148463    2.518823
H       0.337116   -2.618160    0.586704
H       1.844239   -2.471838    1.531525
