20

C      -0.112090    1.571900   -0.376689
C       0.073840    0.090845   -0.028298
N       0.644947   -0.721865   -1.086310
C       0.248763   -0.865245   -2.491075
C       1.016947    0.080349   -3.372499
C       1.684778   -1.195198   -2.854447
C       2.274843   -2.264961   -3.723669
C       1.988330   -0.961039   -1.367185
O       2.966390   -0.956151   -0.667954
H       0.847606    2.047140   -0.601537
H      -0.770292    1.698131   -1.241833
H      -0.563638    2.101889    0.467975
H       0.752101   -0.016580    0.824106
H      -0.887408   -0.344474    0.270923
H      -0.653960   -1.394997   -2.767966
H       0.776952    0.059682   -4.433215
H       1.310191    1.055839   -2.996929
H       1.745656   -2.336752   -4.679051
H       3.326620   -2.050001   -3.940233
H       2.229839   -3.243613   -3.235037
