18

C       0.009225    1.585002    0.126703
C       0.155003    0.072718    0.053870
C       0.842328   -0.626588   -1.106189
C       2.303203   -0.754292   -0.809530
C       2.596962   -0.127328    0.541242
C       1.215146   -0.687334    0.914932
C       0.869962   -1.122365    2.298775
O       1.426169   -0.720721    3.290587
N       1.331470   -1.751963   -0.234903
H       0.952375    2.100094   -0.073187
H      -0.720232    1.931343   -0.613242
H      -0.346401    1.898185    1.114013
H      -0.814195   -0.413499    0.217293
H       0.438598   -0.823263   -2.093597
H       3.013418   -1.058977   -1.569940
H       3.384563   -0.671228    1.067199
H       2.775628    0.947549    0.621741
H       0.029488   -1.850229    2.353172
