17

C       0.231714    1.476228    0.085058
C      -0.034862   -0.025700   -0.036319
C       0.663602   -0.644817   -1.308550
C       1.872021   -1.269836   -0.688398
N       3.024998   -1.828917   -1.023024
N       3.529825   -2.167848    0.167558
N       2.790079   -1.866130    1.263396
C       1.734534   -1.299310    0.702209
N       0.520163   -0.783270    1.132253
H       1.308062    1.679671    0.094593
H      -0.212272    2.017548   -0.756806
H      -0.202523    1.880086    1.006223
H      -1.114229   -0.198515   -0.078598
H       0.017481   -1.391990   -1.783127
H       0.877983    0.125347   -2.054894
H       4.437410   -2.591263    0.253503
H       0.523684   -0.269641    2.003733
