19

O       0.474419    0.955068   -0.842536
C       0.124986   -0.217993   -0.116494
C       0.658871   -0.272775    1.297007
C      -0.266863   -0.644640    2.183064
C      -1.608935   -0.899433    1.553111
C      -2.667027    0.228271    1.749951
C      -2.283893    0.805642    0.357027
C      -1.397733   -0.452905    0.076322
O      -1.950239   -1.355592   -0.855266
H       0.308648    1.713404   -0.272272
H       0.523215   -1.039877   -0.726234
H       1.696164   -0.045014    1.519578
H      -0.098273   -0.752681    3.250246
H      -1.969364   -1.921596    1.697260
H      -3.690293   -0.151086    1.789184
H      -2.505414    0.887855    2.606152
H      -3.108740    0.915306   -0.349686
H      -1.738377    1.751712    0.396918
H      -1.825791   -0.977972   -1.733829
