15

N      -0.077368    1.438321   -0.268680
C      -0.046902    0.028207   -0.039756
C       0.410993   -0.859168   -1.241742
C      -0.861529   -1.748845   -1.088949
C      -1.277307   -0.924088    0.139156
O      -0.677792   -1.454114    1.364468
C       0.386966   -0.579777    1.305100
O       1.249679   -0.428725    2.110133
H      -0.187715    1.956483    0.597540
H       0.791428    1.747768   -0.692648
H       0.413382   -0.278740   -2.166731
H       1.379679   -1.348031   -1.125076
H      -1.553411   -1.645925   -1.927453
H      -0.702202   -2.808820   -0.884638
H      -2.305912   -0.609420    0.304780
