19

C       0.288599    0.953071   -0.528441
O      -0.245109    0.268563    0.604826
C      -1.310780   -0.531430    0.336721
C      -1.376888   -1.868243    0.036808
C      -0.213270   -2.797510   -0.120891
C      -2.772726   -2.177841   -0.102085
C      -3.491875   -1.029787    0.125772
N      -4.874729   -0.758903    0.209411
N      -2.595189   -0.016340    0.378293
H       1.136158    1.541842   -0.170091
H       0.630212    0.244730   -1.292695
H      -0.455662    1.624462   -0.975969
H      -0.311046   -3.677775    0.525369
H      -0.111595   -3.166903   -1.149038
H       0.719152   -2.292609    0.147388
H      -3.190096   -3.140805   -0.358578
H      -5.226163   -0.287826   -0.620267
H      -5.395367   -1.621552    0.312074
H      -2.843129    0.875319    0.772135
