15

N      -0.055851    1.304502    0.093720
C      -0.012604    0.047252    0.019078
O       1.133539   -0.716643   -0.070392
C       0.713460   -2.079434   -0.165644
C      -0.065572   -2.407504   -1.440425
C      -1.218751   -2.943342   -0.676713
C      -0.642474   -2.236750    0.586578
C      -1.174921   -0.908118    0.016616
N      -1.338370   -1.612006   -1.334768
H       0.885776    1.701383    0.061675
H       1.537278   -2.739173    0.097870
H       0.297333   -2.630437   -2.434400
H      -1.893125   -3.769510   -0.847410
H      -0.692918   -2.524524    1.633317
H      -2.120626   -0.495630    0.356209
