14

O       0.001044    0.046183    0.004341
C      -0.014919    1.239872    0.010660
C      -1.144217    2.286548    0.045445
C      -0.697165    3.090269    1.264843
O       0.758026    3.051579    1.173667
C       1.085980    2.316681   -0.012968
C       0.617423    3.120932   -1.223915
O      -0.836201    3.042386   -1.133354
H      -2.173744    1.940097    0.013467
H      -1.039947    4.129019    1.217968
H      -1.014393    2.638498    2.212538
H       2.124409    1.997569    0.015510
H       0.932311    4.167928   -1.166080
H       0.946485    2.687789   -2.176260
