25

C       0.674084    1.315648   -0.497082
C      -0.046139    0.111507    0.117713
O      -0.183002   -0.954162   -0.821397
C       1.009593   -1.722863   -0.771963
C       1.549156   -1.671446    0.688933
C       1.319132   -3.012674    1.404881
C       3.052440   -1.350271    0.694286
C       0.643477   -0.558554    1.329692
C       1.308613    0.386457    2.330124
H       1.711202    1.089950   -0.763170
H       0.151993    1.622267   -1.407874
H       0.681417    2.164030    0.194186
H      -1.066302    0.417503    0.376876
H       0.758496   -2.737958   -1.095498
H       1.759124   -1.324959   -1.473740
H       1.937910   -3.806349    0.970920
H       1.571764   -2.941823    2.469291
H       0.271272   -3.321251    1.328395
H       3.273350   -0.392096    0.214157
H       3.456525   -1.317740    1.711042
H       3.604752   -2.123935    0.148802
H      -0.155700   -1.084949    1.864276
H       2.121433    0.966037    1.884814
H       0.577679    1.096170    2.732844
H       1.722563   -0.167733    3.179007
