20

C      -0.084796    1.615482   -0.080238
C       0.006030    0.085502   -0.005897
C       0.764083   -0.494500   -1.198462
O       2.133303   -0.071462   -1.221648
C       2.854452   -0.078967   -0.067405
O       4.048061    0.089966   -0.097905
N       2.145698   -0.246226    1.093408
C       0.709703   -0.459947    1.251165
C       0.235092    0.141021    2.573497
H       0.901247    2.082449   -0.015145
H      -0.533553    1.919554   -1.031009
H      -0.706947    2.020262    0.721955
H      -1.007179   -0.334040   -0.025042
H       0.727670   -1.592285   -1.181501
H       0.344314   -0.155321   -2.148787
H       2.733514   -0.277807    1.911364
H       0.502578   -1.541859    1.286972
H       0.436105    1.214258    2.621193
H      -0.839107   -0.022090    2.703761
H       0.746384   -0.337469    3.415925
