14

N      -0.072276    1.316407    0.214665
C      -0.022528    0.047126    0.070838
C      -1.278606   -0.687903    0.019648
C      -1.509548   -2.005312   -0.076908
N      -0.584386   -3.037777   -0.063302
C       0.771431   -2.966082    0.076823
N       1.588103   -1.982756    0.048806
C       1.347975   -0.624373   -0.134911
O       2.274510    0.101440   -0.422751
H       0.885970    1.677812    0.152038
H      -2.150996   -0.043932    0.022309
H      -2.529440   -2.364933   -0.148438
H      -0.964899   -3.971845   -0.064310
H       1.202029   -3.959195    0.225241
