22

C       0.215927    1.570229   -0.078095
C       0.052929    0.063224    0.047363
O       0.642407   -0.553705   -1.099117
C       1.171739   -1.836805   -0.766486
C       2.379076   -2.103479   -1.652170
C       1.453350   -1.783153    0.734445
C       1.629653   -3.060399    1.510612
N       2.228735   -0.568601    1.078533
C       0.755187   -0.579277    1.230526
H       1.276969    1.829036   -0.049122
H      -0.207555    1.919884   -1.023620
H      -0.300900    2.082474    0.740152
H      -1.019097   -0.195945    0.105815
H       0.404462   -2.614126   -0.933991
H       3.167545   -1.381798   -1.425879
H       2.761983   -3.116723   -1.490990
H       2.103525   -2.007241   -2.705765
H       2.547774   -3.581548    1.215612
H       1.688781   -2.862913    2.586005
H       0.791197   -3.744712    1.340338
H       2.654234   -0.700538    1.994128
H       0.311941   -0.527567    2.220122
