18

C      -0.052925    1.483770    0.073793
C       0.014024   -0.014024   -0.009756
C       0.000611   -0.680586   -1.173893
C      -0.000413   -2.155491   -1.282605
O       0.011941   -2.739305   -2.354754
N      -0.045914   -2.841710   -0.089730
C       0.089670   -2.261432    1.207323
C       1.351580   -1.548100    1.619836
C       0.095197   -0.752173    1.274764
H       0.818587    1.883816    0.606686
H      -0.097150    1.942410   -0.916479
H      -0.937495    1.800680    0.640862
H      -0.033181   -0.164430   -2.126717
H       0.007489   -3.845043   -0.182453
H      -0.457687   -2.797066    1.976593
H       1.647527   -1.588738    2.662182
H       2.163879   -1.517637    0.902562
H      -0.417710   -0.286976    2.111285
