15

C       0.310877    1.743502    0.048774
C       0.052107    0.219105   -0.091629
C       0.789249   -0.479488    1.077257
O       0.244674   -1.040611    1.983054
C      -1.377249   -0.076713   -0.053051
N      -2.507619   -0.314776   -0.091473
C       0.744009   -0.277929   -1.397595
N      -0.024446   -0.976829   -2.260419
O       1.923945   -0.040212   -1.560006
H       1.384225    1.923806   -0.026951
H      -0.193797    2.287168   -0.753063
H      -0.061886    2.105484    1.009467
H       1.888552   -0.381357    0.987499
H      -1.003469   -1.144707   -2.096991
H       0.404080   -1.320295   -3.104775
