20

C      -0.016384    1.506701   -0.008318
C       0.024516   -0.022104   -0.019840
C       0.721135   -0.596317    1.211767
C       0.894260   -2.117249    1.164749
O       1.589272   -2.615536    2.296844
O      -1.294641   -0.587065   -0.029054
C      -1.964196   -0.493598   -1.259930
C      -3.188478   -1.299342   -1.196165
N      -4.158985   -1.924076   -1.173066
H       1.000167    1.910405    0.017394
H      -0.506133    1.911265   -0.899155
H      -0.555067    1.866021    0.873821
H       0.553520   -0.363993   -0.926474
H       1.706691   -0.129986    1.316843
H       0.136516   -0.318878    2.099166
H      -0.084042   -2.599874    1.041940
H       1.505981   -2.393961    0.297889
H       1.010467   -2.525108    3.060306
H      -2.248102    0.539962   -1.510063
H      -1.342857   -0.869354   -2.089533
