19

O      -0.095674    1.362768   -0.165076
C      -0.048711   -0.011615   -0.000034
C      -0.320263   -0.977256   -1.119150
C      -1.213947   -0.982644    0.103852
C      -0.516177   -1.731921    1.246602
C       0.654609   -0.690188    1.191777
C       2.076851   -1.155554    1.025208
C       2.595131   -2.383136    1.642480
O       2.306728   -2.334556    0.242914
H       0.538810    1.609633   -0.845985
H      -0.769277   -0.511322   -1.991257
H       0.343489   -1.810629   -1.328827
H      -2.275330   -0.783003    0.031936
H      -1.058492   -1.706678    2.193664
H      -0.235500   -2.763489    1.017757
H       0.605807   -0.017759    2.055361
H       2.796923   -0.358064    0.826269
H       3.650841   -2.459794    1.898407
H       1.927255   -3.007692    2.233954
