18

C       0.023668    1.483774   -0.045591
N       1.199738    0.602098   -0.039692
C      -0.144249    0.011896    0.020926
C      -0.493986   -0.665211    1.312563
O      -1.902865   -0.620662    1.522731
C      -2.223953   -1.779815    2.255004
C      -2.401165   -3.043785    1.442528
C      -1.071181   -2.712948    2.083951
O      -0.145834   -2.044829    1.259470
H      -0.099643    2.084830    0.850987
H      -0.265682    1.980900   -0.967200
H       1.579620    0.505343   -0.976752
H      -0.535174   -0.496126   -0.857255
H       0.031443   -0.179801    2.152395
H      -2.753857   -1.608958    3.185502
H      -2.986376   -3.846073    1.881165
H      -2.473020   -2.936359    0.366505
H      -0.638719   -3.319945    2.871586
