21

C      -0.001375    1.457273    0.143552
C       0.048166   -0.052759    0.069132
O       0.695798   -0.419912   -1.124298
C       0.790632   -1.830931   -1.262832
C       1.521211   -2.442714   -0.064562
C       0.849344   -1.960199    1.221664
C       1.608570   -2.297766    2.498197
O       0.948768   -1.793291    3.639961
O       0.742805   -0.532768    1.202084
H       1.015860    1.856203    0.142919
H      -0.539955    1.854514   -0.719517
H      -0.508027    1.770718    1.059145
H      -0.969213   -0.492323    0.071937
H      -0.218989   -2.267133   -1.351170
H       1.321740   -2.015645   -2.199956
H       1.499792   -3.536713   -0.123025
H       2.567675   -2.118168   -0.072064
H      -0.166273   -2.386495    1.292822
H       1.673524   -3.384927    2.613186
H       2.634571   -1.903584    2.414794
H       0.753624   -0.869932    3.439583
