18

C      -0.250108    1.290628   -0.007276
O       0.089371   -0.098114   -0.005179
C       0.671156   -0.538331   -1.148328
O       0.896890    0.155033   -2.116274
N       0.972056   -1.861341   -1.032971
C       1.503663   -2.626793   -2.155235
C       2.981197   -3.003447   -1.941093
C       0.680124   -3.813217   -2.403528
C       0.024879   -4.805022   -2.579647
H       0.640739    1.909862   -0.141005
H      -0.958191    1.517656   -0.808320
H      -0.703225    1.484138    0.965508
H       0.658939   -2.349282   -0.209598
H       1.436086   -1.952974   -3.015960
H       3.094368   -3.639326   -1.058324
H       3.363946   -3.548606   -2.808009
H       3.572569   -2.095067   -1.801394
H      -0.564093   -5.671645   -2.753109
