20

C       0.218985    1.626498    0.033845
C       0.062905    0.117649   -0.019745
C       0.795911   -0.587253   -1.189580
C       1.407390   -1.860741   -0.551009
C       0.820162   -1.819007    0.886763
O       0.618746   -0.450700    1.165626
C       1.005421   -3.140751   -1.274732
N       1.997737   -4.065486   -1.422217
O      -0.133149   -3.341041   -1.655486
H       1.277933    1.899124    0.086202
H      -0.215718    2.086752   -0.858786
H      -0.286386    2.036166    0.912831
H      -1.007110   -0.142902   -0.066980
H       0.103472   -0.849576   -1.990959
H       1.580113    0.054510   -1.600701
H       2.496362   -1.772977   -0.494744
H      -0.131065   -2.373335    0.906687
H       1.489935   -2.230065    1.646092
H       2.951766   -3.875908   -1.172446
H       1.782360   -4.924365   -1.901930
