20

C      -0.234229    1.295120   -0.621839
C       0.319487   -0.110254   -0.456200
C       1.644824   -0.552992   -1.134720
C       2.104540   -0.989088    0.257696
C       2.091657    0.098009    1.253222
C       2.487881    1.532824    1.072743
C       3.889192    1.901573    0.818722
O       2.900141    2.027299   -0.203525
N       0.798133   -0.540354    0.920015
H       0.530986    2.068341   -0.537558
H      -0.693324    1.395216   -1.611814
H      -1.012440    1.483719    0.125964
H      -0.472910   -0.823972   -0.701002
H       1.511665   -1.390089   -1.822323
H       2.246045    0.220387   -1.611449
H       2.543027   -1.956583    0.485361
H       2.368386   -0.229430    2.256869
H       1.882091    2.242287    1.639130
H       4.282740    2.839370    1.207285
H       4.624203    1.114973    0.655995
