18

O      -0.575092    1.662629    1.512980
C      -0.175057    0.584656    0.730193
C      -0.437452   -0.823059    1.172731
C      -1.860955   -0.911943    1.742877
N      -2.399044   -0.548425    0.409298
C      -3.550499    0.307537    0.185183
C      -3.502685    1.713271    0.626741
C      -3.493179    2.870167    0.962416
C      -1.073240   -0.284474   -0.122727
H      -1.305442    2.118853    1.077393
H       0.810470    0.712344    0.277808
H       0.330392   -1.574037    1.299044
H      -2.176244   -1.912288    2.055405
H      -2.060523   -0.189073    2.542947
H      -3.758559    0.298162   -0.892946
H      -4.414858   -0.171303    0.662784
H      -3.491918    3.885017    1.277666
H      -0.852751   -0.501340   -1.164610
