18

C      -0.051844    1.575435    0.015167
C       0.094258    0.066903    0.052960
N       1.118417   -0.559355   -0.846704
C       2.384756   -0.625108   -0.027677
C       2.150607   -0.046815    1.364318
C       0.727985   -0.679332    1.267369
C      -0.025271   -1.022341    2.435721
C      -0.675966   -1.311604    3.406126
C       1.324437   -1.641589    0.144681
H       0.893671    2.093419    0.192314
H      -0.420712    1.885137   -0.967811
H      -0.774131    1.906219    0.769043
H      -0.860558   -0.408789   -0.192363
H       3.307971   -0.689570   -0.587165
H       2.754291   -0.576604    2.104541
H       2.220782    1.030950    1.533117
H      -1.246602   -1.565567    4.264807
H       1.241162   -2.701124   -0.056982
