25

C       0.213845    0.995243   -2.225178
O       0.343050   -0.371997   -1.923206
C       0.776890   -0.607786   -0.602909
C       0.765285   -2.108451   -0.334800
C       1.513856   -2.458178    0.953321
O      -0.584655   -2.541470   -0.226664
C      -0.964857   -3.653586   -1.034803
C      -2.142945   -4.321181   -0.332305
C      -1.313283   -3.209876   -2.457560
H      -0.523277    1.489829   -1.573034
H       1.172114    1.530280   -2.124158
H      -0.124079    1.072178   -3.261603
H       1.793840   -0.205474   -0.455086
H       0.111545   -0.111311    0.122650
H       1.253021   -2.598899   -1.188723
H       1.467528   -3.535756    1.133148
H       2.566936   -2.163636    0.898567
H       1.053823   -1.954370    1.809504
H      -0.127402   -4.369607   -1.076499
H      -2.975748   -3.616381   -0.242255
H      -2.488531   -5.192182   -0.897405
H      -1.859630   -4.644519    0.672983
H      -0.483712   -2.667182   -2.916329
H      -1.557494   -4.075667   -3.082683
H      -2.177868   -2.538628   -2.438164
