17

O       0.021373    1.432183   -0.212585
C      -0.097462    0.051562    0.023285
C      -0.447687   -0.681118    1.283403
O       0.480473   -1.544745    1.830209
C      -1.628922   -0.107116    2.111468
C      -2.254947    1.160569    1.576844
C      -2.530373   -0.156478    0.896059
C      -1.373462   -0.731727    0.028011
O      -1.621310   -1.753453   -0.870689
H       0.821318    1.734910    0.231978
H       0.658615   -0.542658   -0.500033
H       0.010058   -2.296340    2.209216
H      -1.843454   -0.489716    3.102225
H      -3.081627    1.529863    2.179665
H      -1.661281    1.922649    1.094184
H      -3.514933   -0.602163    0.835734
H      -1.717511   -1.369883   -1.750204
