25

C      -0.016675    1.597600    0.100283
C      -0.002302    0.067995    0.046260
C      -1.404986   -0.543926   -0.025875
C      -1.407201   -2.077285   -0.018028
O      -0.754903   -2.596761    1.144010
C      -2.818159   -2.655215   -0.171026
C      -2.836472   -4.176938   -0.231371
O      -4.178473   -4.602784   -0.343657
C      -4.304020   -6.002148   -0.394203
H       0.998339    2.004099    0.149820
H      -0.502637    2.023829   -0.784736
H      -0.562017    1.958830    0.979689
H       0.577881   -0.263652   -0.825128
H       0.513791   -0.336103    0.923627
H      -2.009564   -0.187597    0.822720
H      -1.919764   -0.193397   -0.930292
H      -0.784138   -2.433342   -0.850014
H      -1.258867   -2.303786    1.912281
H      -3.443819   -2.326361    0.670304
H      -3.283620   -2.255938   -1.079654
H      -2.247295   -4.532017   -1.095702
H      -2.366465   -4.598101    0.670582
H      -5.369041   -6.234574   -0.474323
H      -3.781412   -6.430204   -1.265046
H      -3.902669   -6.483585    0.512232
