14

O      -0.000078    1.341280    0.000766
C       0.029531    0.005727   -0.092029
C       0.027400   -0.817967   -1.166978
C       0.069469   -2.188298   -0.679047
C       0.095482   -2.143288    0.671862
O       0.137339   -3.069099    1.663724
N       0.071894   -0.797982    1.078318
C       0.086495   -0.327836    2.365624
O       0.064954    0.857853    2.645343
H       0.013452    1.568509    0.951472
H      -0.000649   -0.503809   -2.196993
H       0.078385   -3.079992   -1.286321
H       0.147896   -3.944162    1.263716
H       0.120893   -1.126135    3.119044
