16

C       0.099982    1.460921   -0.115255
C       0.026025   -0.027341   -0.064623
N       0.143815   -0.860132   -1.085341
C       0.019214   -2.094017   -0.508852
C       0.112292   -3.362118   -1.292612
C       1.486086   -3.552711   -1.926757
O       2.041150   -4.614974   -2.020267
N      -0.166133   -2.075285    0.801366
N      -0.162090   -0.744040    1.065131
H       1.071020    1.823920    0.239410
H      -0.028126    1.787678   -1.147760
H      -0.676431    1.924540    0.500923
H      -0.122533   -4.228206   -0.672242
H      -0.606991   -3.323047   -2.122939
H       1.938727   -2.617299   -2.321368
H      -0.298251   -0.423264    2.009825
