21

C      -0.298847    1.456448   -0.619755
O      -0.075694    0.127251   -0.214383
C       0.752484   -0.589838   -1.101906
C       0.908055   -2.006323   -0.576914
C      -0.386608   -2.858568   -0.673198
C       0.169625   -3.544718   -1.963462
C       1.576547   -2.971379   -1.595005
C       0.055731   -5.040604   -2.022940
O      -0.416241   -5.673562   -2.932234
H       0.640327    2.029171   -0.679470
H      -0.792472    1.506928   -1.603431
H      -0.948662    1.921802    0.125283
H       0.312208   -0.598016   -2.115705
H       1.742302   -0.107287   -1.186964
H       1.368197   -1.963822    0.413604
H      -0.479299   -3.567153    0.155561
H      -1.327839   -2.315630   -0.773577
H      -0.236636   -3.121388   -2.883640
H       2.146316   -2.526633   -2.415151
H       2.206332   -3.719343   -1.103797
H       0.459465   -5.554782   -1.115557
