23

C       0.098788    1.558628    0.159673
C       0.014725    0.039159    0.000304
C      -1.423221   -0.486788   -0.046482
C      -1.440345   -2.017330   -0.185991
O      -2.595054   -2.604640   -0.759702
C      -3.876418   -2.101918   -0.419575
C      -4.047726   -1.534170    0.992133
C      -3.458373   -0.131921    1.176967
O      -2.047769   -0.073594    1.164379
H       1.140407    1.889542    0.212143
H      -0.371561    2.070600   -0.687584
H      -0.412025    1.878217    1.070525
H       0.524223   -0.272068   -0.918853
H       0.534715   -0.452407    0.832638
H      -1.945803   -0.036140   -0.908225
H      -0.619732   -2.332294   -0.839460
H      -1.243973   -2.431328    0.815742
H      -4.179533   -1.326766   -1.144430
H      -4.558036   -2.948188   -0.560248
H      -5.126147   -1.466250    1.185738
H      -3.633583   -2.221850    1.738395
H      -3.873664    0.533035    0.398867
H      -3.755297    0.273407    2.149563
