17

O       0.110248    1.365200   -0.160784
C       0.041030   -0.036234    0.002845
C       0.763636   -0.497421    1.275254
O       0.012347   -0.207695    2.443125
C      -1.142314   -1.012766    2.550903
C      -2.021149   -0.941677    1.318701
N      -2.297068    0.402950    0.796457
C      -1.419560   -0.503516    0.029811
H      -0.588814    1.715097    0.411139
H       0.549832   -0.479186   -0.861507
H       0.979170   -1.578834    1.215331
H       1.707224    0.045598    1.370931
H      -0.862877   -2.068196    2.719561
H      -1.684435   -0.659275    3.433950
H      -2.822989   -1.677258    1.285735
H      -3.220240    0.448518    0.376218
H      -1.815717   -0.920125   -0.891838
