20

C      -0.004211    1.547109    0.086327
C       0.012899    0.023589    0.027457
C       0.598591   -0.478875   -1.308707
C       0.275898   -1.924466   -1.673538
O      -0.292793   -2.218687   -2.709518
N       0.650773   -2.884214   -0.772635
C       1.383884   -2.696708    0.468892
C       0.688106   -1.773060    1.473044
O       0.778081   -0.404007    1.149972
H       1.007667    1.945174   -0.039524
H      -0.640166    1.957365   -0.702779
H      -0.385017    1.880013    1.055067
H      -1.017768   -0.355377    0.130596
H       0.207679    0.120185   -2.133244
H       1.686080   -0.333946   -1.273542
H       0.442097   -3.824206   -1.073084
H       1.493418   -3.683788    0.927591
H       2.396844   -2.312125    0.284302
H      -0.363760   -2.084114    1.581529
H       1.180236   -1.877810    2.446012
