22

C       0.242031    1.497343    0.306956
C       0.144026   -0.020980    0.132617
C      -1.293682   -0.537230    0.128179
C      -1.526854   -2.093554    0.113727
C      -0.340711   -3.031095   -0.058090
C      -2.135203   -1.958371    1.540182
N      -1.976128   -0.504881    1.439152
C      -2.759344    0.434318    2.021702
O      -3.522450    0.218051    2.941652
H       1.284498    1.827941    0.280125
H      -0.296341    2.025400   -0.488057
H      -0.180525    1.813840    1.265757
H       0.611947   -0.313914   -0.815969
H       0.707286   -0.518730    0.929670
H      -1.862395   -0.011037   -0.649889
H      -2.300696   -2.347725   -0.615216
H       0.446885   -2.835659    0.675808
H      -0.661075   -4.070291    0.071950
H       0.099202   -2.945250   -1.057061
H      -3.176140   -2.269074    1.666121
H      -1.535484   -2.406439    2.340833
H      -2.620972    1.436450    1.566830
