15

N       0.202405    1.419096   -0.020036
C       0.083963   -0.010537   -0.037623
C       1.058931   -0.576604   -0.971696
N       1.813524   -0.994920   -1.740284
C      -0.055652   -0.632267    1.416072
O      -1.452670   -0.194574    1.374324
C      -1.391487   -0.656600   -0.011692
C      -1.083480   -2.139122    0.146518
C      -0.169878   -2.124983    1.124065
H       0.173513    1.815779   -0.952494
H      -0.549409    1.807538    0.540244
H       0.521046   -0.249039    2.255316
H      -2.197437   -0.300539   -0.651056
H      -1.481691   -2.954006   -0.438574
H       0.396257   -2.922549    1.579721
