21

C      -0.165340    1.570286    0.021743
C       0.094296    0.061008    0.050532
C       0.783438   -0.428408   -1.245515
C      -0.022748   -0.201149   -2.442665
N      -0.674229   -0.021483   -3.380252
C       0.949512   -0.351915    1.258217
N       0.277541   -0.031715    2.509889
C      -0.570788   -1.076445    3.077129
C       0.741309   -0.740834    3.695666
H       0.774059    2.123514   -0.099057
H      -0.826135    1.842704   -0.805882
H      -0.622681    1.889409    0.960012
H      -0.867998   -0.460918    0.129576
H       1.745582    0.083357   -1.374578
H       1.002701   -1.500721   -1.180763
H       1.194649   -1.429058    1.188857
H       1.901777    0.195264    1.237876
H      -1.499039   -0.741171    3.529945
H      -0.638905   -2.023913    2.543858
H       1.545241   -1.465702    3.575547
H       0.790095   -0.154638    4.608701
