21

C       0.815719   -0.473813    1.280350
C       0.049490   -0.022629    0.030915
C      -1.371930   -0.585107   -0.036418
O      -2.105671   -0.036979    1.070728
C      -2.124350   -0.690660   -1.411592
C      -1.218125   -1.918432   -1.717418
C      -1.642715   -2.109790   -0.232944
C      -3.088205   -1.741537   -0.742427
O      -4.128225   -1.390471    0.103500
H       1.792281    0.015722    1.339664
H       0.255473   -0.236091    2.188196
H       0.984632   -1.555501    1.266372
H      -0.029266    1.075199    0.023788
H       0.618777   -0.276074   -0.865929
H      -2.034099    0.923014    1.028003
H      -2.384787    0.124956   -2.089531
H      -1.631165   -2.644719   -2.420260
H      -0.165400   -1.739213   -1.923514
H      -1.355966   -2.918864    0.440482
H      -3.494115   -2.468012   -1.451595
H      -3.752368   -0.781266    0.755408
