19

C       0.064186    1.546793    0.088294
C       0.143846    0.036278   -0.039427
O       1.060496   -0.388308   -1.077561
C       1.888823   -1.282634   -0.365456
C       2.280713   -0.452651    0.958758
C       0.749815   -0.737200    1.167654
O      -0.265543   -1.174395    2.112859
C      -0.458126   -2.358809    1.233541
C       0.974331   -2.113343    0.640171
H       1.025903    1.992838    0.352790
H      -0.266011    1.987987   -0.856813
H      -0.666163    1.809394    0.860885
H      -0.851515   -0.348572   -0.286609
H       2.634370   -1.730808   -1.021178
H       2.929237   -0.993821    1.645144
H       2.638729    0.564209    0.786458
H      -0.560587   -3.270128    1.826398
H      -1.324478   -2.228338    0.581866
H       1.658479   -2.647473    1.302281
