18

C       0.113376    1.525163    0.375626
C       0.058547    0.067423    0.069400
C       0.763811   -0.886617   -0.980280
C       1.187490   -1.691785    0.261405
N       0.093728   -1.032239    1.049860
C      -1.061183   -0.945996    0.054263
C      -0.628090   -1.489988   -1.301643
C      -2.416296   -0.828510    0.608672
O      -3.416673   -1.105589   -0.011499
H       1.142155    1.841302    0.581669
H      -0.261219    2.120645   -0.463290
H      -0.491540    1.750939    1.258454
H       1.457153   -0.608249   -1.771544
H       1.136902   -2.785050    0.213108
H       2.144799   -1.379681    0.685815
H      -1.142392   -0.955681   -2.102820
H      -0.683798   -2.568546   -1.478406
H      -2.455722   -0.453579    1.653746
