21

C      -0.034849    1.575162   -0.005247
C       0.041455    0.043999    0.048242
C       0.840682   -0.420788    1.271593
C      -1.382748   -0.563428    0.009081
C      -1.432595   -2.059825   -0.109842
C      -1.503478   -2.788961   -1.257906
O      -1.516872   -4.123961   -0.994842
C      -1.456241   -4.255443    0.355403
C      -1.404180   -3.035995    0.949064
H       0.965340    2.020446   -0.019075
H      -0.568701    1.920275   -0.897216
H      -0.561218    1.971819    0.871466
H       0.565917   -0.305167   -0.851836
H       0.353158   -0.099645    2.200754
H       0.937077   -1.509474    1.301072
H       1.849152    0.005899    1.264339
H      -1.922827   -0.249737    0.912413
H      -1.921083   -0.120101   -0.837092
H      -1.558399   -2.518085   -2.299933
H      -1.465042   -5.266367    0.728252
H      -1.359615   -2.839225    2.009278
