17

O       0.184452    1.414847   -0.201822
C       0.086393   -0.000923   -0.024476
C       0.832099   -0.465484    1.198676
C       0.188247   -1.170359    2.128909
C      -1.261905   -1.499110    1.933528
C      -1.733346   -1.891215    0.498885
O      -3.091859   -1.420327    0.826461
C      -2.178197   -0.385855    1.347031
C      -1.371860   -0.457007    0.014956
H      -0.115601    1.826443    0.616420
H       0.558387   -0.411968   -0.926865
H       1.878074   -0.188745    1.286674
H       0.686766   -1.520575    3.027802
H      -1.724650   -2.084147    2.728306
H      -1.635815   -2.847636   -0.016767
H      -2.621020    0.473699    1.853073
H      -1.939178   -0.126262   -0.856668
