10

F      -0.006387    0.067604    0.003982
C      -0.008130    1.392481    0.010352
N      -1.187147    1.964612    0.029031
N      -1.254569    3.300684    0.036790
C      -0.139147    3.988776    0.025435
F      -0.270790    5.307083    0.034382
C       1.148571    3.440524    0.005699
C       1.217845    2.067770   -0.002269
H       2.024269    4.077288   -0.002479
H       2.153189    1.522531   -0.017308
