19

C      -0.024732    1.595117   -0.001459
C      -0.021649    0.064488    0.010944
C      -1.429628   -0.526822   -0.067237
N      -1.415825   -1.978116   -0.033505
C      -0.914740   -2.696838   -1.230224
C      -2.127816   -3.630425   -1.106149
O      -2.458804   -4.665094   -1.598911
C      -2.723381   -2.673399   -0.063520
H       0.992915    1.993029    0.049554
H      -0.489068    1.985699   -0.913715
H      -0.582099    1.997990    0.851502
H       0.573640   -0.308386   -0.832726
H       0.463127   -0.309978    0.919707
H      -2.019444   -0.178405    0.790008
H      -1.940149   -0.146585   -0.977118
H      -0.956774   -2.112223   -2.165644
H       0.079643   -3.145005   -1.137053
H      -3.053769   -3.101679    0.888831
H      -3.547951   -2.079717   -0.493908
