15

O      -0.158594    1.360685    0.026979
C      -0.123455   -0.019080    0.008943
C       1.025763   -0.587751    0.763263
O       1.838494    0.129304    1.298030
C      -1.380677   -0.831097   -0.001382
C      -2.472054   -0.033478   -0.736708
C      -1.560911   -0.080890   -1.989173
O      -1.727603    0.194186   -3.139498
C      -0.469226   -0.824182   -1.256540
H       0.649106    1.631523    0.492804
H       1.092710   -1.692999    0.800930
H      -1.557899   -1.654601    0.679067
H      -3.384552   -0.608656   -0.914614
H      -2.718954    0.947428   -0.328813
H       0.203146   -1.569375   -1.665774
