18

C       0.009117    1.513879    0.060977
C       1.326436    2.233770   -0.087134
C       2.477451    1.577934   -0.232087
C       2.481374    0.079370   -0.259595
C       2.168753   -0.714232    1.021366
C       1.296211   -1.697445    0.264393
C       0.626159   -0.680813    1.133109
N       0.072302    0.046907   -0.009149
C       1.168616   -0.568945   -0.816248
H      -0.458063    1.769318    1.022327
H      -0.690155    1.874858   -0.708407
H       1.290659    3.320818   -0.105606
H       3.414633    2.114662   -0.352074
H       3.360244   -0.337172   -0.758379
H       2.809628   -0.896958    1.875018
H       1.240794   -2.774606    0.226497
H       0.095553   -0.801192    2.069989
H       1.001812   -0.671775   -1.887285
