15

O       0.240872    1.181378   -0.333818
C       0.056823   -0.127633    0.066421
C      -0.021331   -0.436212    1.576831
O      -1.359190   -0.959168    1.469303
C      -1.441047   -0.735166    0.065762
C      -2.460434    0.327613   -0.306831
O      -2.537439    1.369524    0.298315
C      -1.552802   -1.995390   -0.758903
O      -1.353531   -3.104412   -0.343112
H      -0.405698    1.734220    0.128887
H       0.756999   -0.743031   -0.500504
H       0.683112   -1.185973    1.952059
H       0.020338    0.460694    2.205807
H      -3.106165    0.126926   -1.186978
H      -1.789071   -1.803196   -1.833129
