23

C      -0.162219    1.507181    0.211699
O       0.163286    0.153111   -0.001526
C       0.674336   -0.526427    1.141740
C      -0.445162   -0.868756    2.133020
C       1.384612   -1.790759    0.686788
C       1.077456   -2.464525   -0.639740
C       2.443208   -1.870063   -0.375106
C       2.939821   -0.671808   -1.150213
O       3.465147   -2.779937   -0.029324
H       0.694639    2.073826    0.608306
H      -0.442549    1.926004   -0.758186
H      -1.008497    1.635824    0.901311
H       1.403736    0.132935    1.644056
H      -0.970188    0.027383    2.475196
H      -1.170541   -1.539432    1.662698
H      -0.032374   -1.367369    3.015487
H       1.576570   -2.475389    1.507733
H       0.993016   -3.545579   -0.649032
H       0.419255   -1.933149   -1.317147
H       2.126733    0.021491   -1.366058
H       3.716179   -0.145572   -0.584291
H       3.382622   -0.992686   -2.102048
H       3.805927   -3.156525   -0.848663
