15

C       0.056425    1.550688   -0.008633
C       0.044661    0.054787   -0.011300
C       0.049905   -0.797398   -1.095488
O       0.056760   -0.596368   -2.430807
N       0.039152   -2.065020   -0.624076
N       0.025904   -2.124169    0.725741
C       0.030032   -0.840044    1.100565
C       0.013270   -0.465919    2.468285
C      -0.003000   -0.096069    3.613912
H       1.054876    1.965624   -0.195956
H      -0.621556    1.969374   -0.763135
H      -0.271088    1.925934    0.964344
H       0.078017    0.351485   -2.598661
H       0.034697   -2.913383   -1.164802
H      -0.015811    0.210516    4.630257
