21

C       0.415167    1.763818   -0.689108
C       0.421465    0.274850   -0.421032
O      -0.748878   -0.355841   -0.902464
C       1.631562   -0.617660   -0.494513
C       2.873617    0.026466    0.137654
C       2.117220    0.100210    1.507570
C       2.080732    1.384354    2.317142
O       3.394937    1.603057    2.816665
C       0.852944   -0.439450    0.831578
H       1.344192    2.253296   -0.394325
H       0.281027    1.944437   -1.763679
H      -0.415821    2.246192   -0.164643
H      -0.727794   -0.310336   -1.864861
H       1.632869   -1.478348   -1.153359
H       3.738332   -0.638019    0.174535
H       3.198429    0.978432   -0.294009
H       2.521714   -0.675852    2.165274
H       1.746986    2.233985    1.705655
H       1.353273    1.270001    3.138352
H       3.397733    2.431093    3.305351
H       0.149313   -1.125109    1.289110
