17

C       0.169460    1.539170   -0.082872
C       0.044778    0.032108    0.041675
O       0.617883   -0.599374   -1.128994
C       1.346748   -1.705042   -0.824028
O       1.818298   -2.418488   -1.661167
C       1.479443   -1.835513    0.687218
C       2.767009   -1.175862    1.228914
O       2.044551    0.037984    1.539077
C       0.778246   -0.587027    1.237739
H       1.221011    1.831062   -0.066875
H      -0.288759    1.881363   -1.013612
H      -0.339601    2.026469    0.754564
H      -1.011226   -0.266680    0.079222
H       1.229463   -2.835687    1.035491
H       3.163076   -1.651496    2.133546
H       3.579212   -1.014164    0.513332
H       0.144691   -0.669716    2.126272
