20

C       0.367538    1.528549    0.145344
C       0.188880    0.010943    0.090439
C      -1.287274   -0.423189   -0.066753
N      -1.890286    0.083228   -1.298710
C      -2.881838    1.027637   -1.287775
C      -3.509638    1.313201   -2.642827
O      -3.240915    1.592072   -0.270451
C      -1.416082   -1.880304   -0.001680
C      -1.486471   -3.079948    0.026160
H       1.421997    1.786120    0.281779
H       0.022342    2.002387   -0.777908
H      -0.199734    1.965484    0.972969
H       0.769908   -0.415548   -0.736445
H       0.571727   -0.451348    1.006970
H      -1.873686    0.035343    0.737821
H      -1.696114   -0.417832   -2.150633
H      -4.473177    0.796822   -2.702255
H      -3.702551    2.384389   -2.720986
H      -2.890721    0.991265   -3.484548
H      -1.565909   -4.138139    0.069100
