18

C       0.056177    1.436725   -0.084587
C      -0.194645   -0.032039    0.192355
O       0.961750   -0.549339    0.884467
C       0.904083   -1.827614    1.251828
C       1.159650   -2.470858    2.414288
N       1.039607   -3.842883    2.201646
C       0.713332   -3.964513    0.956757
C       0.431268   -5.201046    0.184087
O       0.614395   -2.769846    0.295927
H       0.947269    1.564415   -0.705227
H      -0.799412    1.867863   -0.612468
H       0.203016    1.987390    0.848433
H      -1.079007   -0.178301    0.826066
H      -0.340420   -0.595076   -0.735826
H       1.423945   -2.051227    3.370166
H      -0.592096   -5.202029   -0.206725
H       1.109837   -5.301355   -0.669668
H       0.559548   -6.060343    0.842950
