18

C      -0.067115    1.453639   -0.178590
C       1.450408    1.623341    0.205912
C       1.374385    0.207513    0.766281
C       2.143079   -1.096503    0.936966
C       0.868068   -1.953786    1.310191
C      -0.196667   -0.807843    1.325453
O       0.558877    0.232309    2.005084
C       0.068290   -0.101960   -0.007461
H      -0.749052    1.927535    0.526300
H      -0.322760    1.763196   -1.193430
H       2.089790    1.685592   -0.679715
H       1.719995    2.413925    0.909540
H       2.629828   -1.430072    0.016953
H       2.880206   -1.069352    1.742342
H       0.651884   -2.739298    0.580339
H       0.951082   -2.407887    2.299509
H      -1.173455   -1.024773    1.763525
H       0.070351   -0.681499   -0.932695
