15

O      -0.059667   -0.101216    0.192864
C      -0.027539    1.089541    0.006557
N       1.129396    1.843035   -0.122850
C       1.047748    3.294064   -0.268953
C       2.287591    3.876090   -0.943311
O       2.225966    4.906014   -1.566075
C       3.589834    3.121016   -0.717931
N       3.513947    1.764794   -0.204861
C       2.382625    1.233919    0.008860
H      -0.933380    1.718025   -0.089821
H       0.166834    3.572550   -0.851275
H       0.964270    3.777506    0.716673
H       4.138112    3.113859   -1.667686
H       4.208066    3.726135   -0.038977
H       2.309112    0.198873    0.329755
