12

C      -0.026920    1.462272    0.126530
C      -0.017647   -0.015300   -0.053895
N      -0.177191   -0.620585   -1.152583
C      -0.145082   -2.047051   -1.180125
O      -0.292826   -2.649365   -2.204140
N       0.068745   -2.720589    0.053435
C       0.213151   -2.001328    1.075114
F       0.415040   -2.505098    2.260958
O       0.192962   -0.662857    1.163637
H       0.925550    1.794847    0.551200
H      -0.193116    1.940461   -0.837101
H      -0.815437    1.750041    0.829079
