11

F       0.086069    0.100009    0.107748
C      -0.078821    1.384250   -0.024319
N      -1.191348    1.930500    0.208351
C      -1.265826    3.324275    0.037657
O      -2.262319    3.966105    0.224978
N      -0.074479    3.934030   -0.375009
C       1.124245    3.313358   -0.620814
N       2.166074    3.906966   -0.989887
O       1.079795    1.927894   -0.418474
H      -0.095027    4.935247   -0.506697
H       2.945188    3.266687   -1.117131
