21

C      -0.036045    1.537615    0.037810
C       0.028012    0.004515    0.009799
C       0.663914   -0.519241   -1.288153
C       0.838430   -2.034230   -1.250505
O       1.266259   -2.449072   -2.541042
C       1.836845   -2.454265   -0.159474
C       1.633448   -1.710201    1.149222
O       2.187392   -0.387821    1.214399
C       0.762918   -0.523863    1.227660
H       0.972526    1.962831    0.031221
H      -0.574312    1.922502   -0.834099
H      -0.548227    1.898799    0.935909
H      -0.999043   -0.385674    0.073027
H       0.036588   -0.254556   -2.145182
H       1.641671   -0.049486   -1.442190
H      -0.142343   -2.485359   -1.017820
H       1.404244   -3.401579   -2.519425
H       1.762411   -3.534019    0.020594
H       2.851973   -2.256333   -0.523466
H       1.794171   -2.288607    2.059323
H       0.304997   -0.281720    2.189246
