20

C      -0.308554    1.480478   -0.002676
C       0.032055    0.008728   -0.025252
C       1.185710   -0.468111   -0.945797
C       1.935433   -1.059063    0.286943
C       0.721912   -0.711460    1.196752
C       1.002445    0.035721    2.488376
N      -0.140832   -1.883325    1.447916
C      -1.114748   -1.788794    0.641044
O      -1.190024   -0.755226   -0.231893
H       0.590124    2.079834    0.170315
H      -0.740456    1.787697   -0.960700
H      -1.031501    1.704438    0.787212
H       0.855677   -1.206979   -1.678616
H       1.708889    0.333502   -1.473000
H       2.167225   -2.124613    0.241343
H       2.843889   -0.511338    0.552152
H       1.617759    0.923381    2.310182
H       0.072534    0.349162    2.973205
H       1.537844   -0.617924    3.183948
H      -1.944172   -2.485645    0.578224
