18

O       0.049264    1.450143    0.221253
C      -0.035998    0.063172    0.006549
C      -1.407756   -0.596019   -0.063369
C      -2.048132   -0.439675   -1.390385
C      -1.625577    0.691096   -2.316568
C      -0.119860    0.396556   -2.541173
O       0.744008    1.532775   -2.472263
C       0.223254   -0.556712   -1.397210
N      -0.982193   -1.469072   -1.239561
H       0.421759    1.839715   -0.581764
H       0.573021   -0.461138    0.753362
H      -1.945849   -1.015987    0.781067
H      -3.043551   -0.859622   -1.494660
H      -2.191429    0.671072   -3.252193
H      -1.757584    1.672291   -1.852104
H       0.024657   -0.119626   -3.500045
H       0.488251    2.156752   -3.158754
H       1.160629   -1.094659   -1.532147
