25

C       0.058348    1.432970   -0.238215
C      -0.074438   -0.081201   -0.035601
C       0.698046   -0.558514    1.199940
C      -1.541503   -0.498821    0.062294
O      -2.201679   -0.165191   -1.139719
C      -3.581252   -0.469293   -1.126176
C      -4.196267   -0.034562   -2.427525
C      -4.124225   -0.935737   -3.632122
C      -5.441107   -0.722177   -2.929087
H       1.104021    1.719399   -0.390563
H      -0.521036    1.758782   -1.104873
H      -0.310671    1.976719    0.640435
H       0.337633   -0.584324   -0.920643
H       0.303739   -0.098755    2.114217
H       0.637677   -1.645581    1.319956
H       1.756029   -0.288194    1.126493
H      -1.616722   -1.584426    0.249739
H      -2.022505    0.009020    0.918664
H      -3.734787   -1.553811   -0.981555
H      -4.071658    0.038711   -0.277258
H      -4.120239    1.032427   -2.615566
H      -3.978239   -0.481556   -4.605657
H      -3.634353   -1.896423   -3.512454
H      -5.842263   -1.541903   -2.341593
H      -6.197872   -0.118025   -3.416607
