18

N      -0.290102    1.258495   -0.064496
C      -0.023681   -0.080297   -0.017536
O       1.078811   -0.573497    0.017999
O      -1.185949   -0.784489   -0.066494
C      -1.061662   -2.221440    0.016901
C      -0.931675   -2.669657    1.477722
O      -1.983421   -2.229960    2.308615
C      -2.298876   -2.768712   -0.688566
O      -3.512808   -2.366288   -0.056274
H       0.478181    1.864920    0.167254
H      -1.217419    1.572877    0.166382
H      -0.161387   -2.530249   -0.524295
H      -0.833324   -3.769628    1.475088
H      -0.003576   -2.262386    1.888438
H      -2.806908   -2.444529    1.849466
H      -2.289082   -2.457832   -1.742283
H      -2.282735   -3.862228   -0.657269
H      -3.517686   -1.401737   -0.069482
