17

C      -0.105876    1.502245   -0.012382
C      -0.044454   -0.028095   -0.008653
C      -1.338906   -0.596747   -0.346177
C      -2.432656   -1.008221   -0.630920
C       1.266702   -0.628325   -0.678307
O       1.993704   -0.199940    0.514378
C       0.783018   -0.643152    1.201649
C       0.772251   -2.143178    0.873784
C       1.104762   -2.132984   -0.418574
H       0.869003    1.920264    0.241703
H      -0.409178    1.867512   -0.998317
H      -0.848664    1.854033    0.710107
H      -3.391873   -1.389074   -0.880878
H       1.669903   -0.258623   -1.620264
H       0.680163   -0.288965    2.226591
H       0.524825   -2.955747    1.539600
H       1.212471   -2.934668   -1.133069
