17

C       0.231804    1.408381    0.169828
N       0.204579   -0.040273    0.135357
C       0.438901   -0.608793   -0.989909
N       0.721229    0.006175   -2.203217
N       0.964198   -0.628569   -3.376391
C       0.927416   -1.923563   -3.351523
C       1.188288   -2.677551   -4.618577
N       0.659334   -2.693982   -2.218919
C       0.432670   -2.062078   -1.120756
H       1.214545    1.821699   -0.116505
H      -0.518819    1.863473   -0.499557
H       0.016083    1.753340    1.183591
H       0.759934    1.010190   -2.269396
H       2.045901   -3.346656   -4.491510
H       0.328309   -3.307995   -4.868096
H       1.384089   -1.987978   -5.440163
H       0.219017   -2.622574   -0.212276
