17

O      -0.030096    0.348899   -0.872527
C       0.004774    1.235748   -0.062210
C      -1.343496    1.814860    0.420801
O      -1.371574    2.865750    1.362676
C      -0.770685    4.032003    0.884386
C      -0.045371    4.853734    1.897590
C       0.737965    4.022143    0.896129
C       1.340835    2.723974    1.361722
O       1.200534    1.671897    0.384313
H      -1.878674    2.090342   -0.499442
H      -1.886261    0.979207    0.870751
H      -1.303085    4.522042    0.069819
H      -0.045334    5.930428    1.776768
H      -0.078604    4.508440    2.925003
H       1.266723    4.539778    0.102509
H       2.420783    2.809008    1.499544
H       0.896963    2.404326    2.307609
