19

C       0.039322    1.671625    0.033591
C      -0.051157    0.186213    0.339213
O       0.135557   -0.557252   -0.873006
C       0.884158   -1.752105   -0.618700
C       1.020697   -1.843856    0.918830
C       0.988786   -0.366734    1.324083
O       2.231680    0.277251    1.082459
C       0.235179   -2.914249   -1.218046
C      -0.283472   -3.884095   -1.702235
H       1.038066    1.926610   -0.323371
H      -0.692799    1.935934   -0.733876
H      -0.174742    2.259766    0.931797
H      -1.048463   -0.044900    0.747546
H       1.880404   -1.630288   -1.066659
H       0.165090   -2.377256    1.343142
H       1.933979   -2.358881    1.227883
H       0.666291   -0.222635    2.364637
H       2.895294   -0.133971    1.644629
H      -0.745022   -4.734633   -2.139546
