13

C      -0.213742   -1.036229   -0.666381
C      -0.051244    0.039120   -0.157769
C       0.141777    1.343752    0.462181
C       1.425631    2.004707    0.057622
C       2.452252    1.656629   -0.761725
C       3.333274    2.767209   -0.667660
N       2.880848    3.698731    0.133582
O       1.658291    3.212484    0.599760
H      -0.363358   -1.988096   -1.113029
H      -0.695695    2.007628    0.208748
H       0.120625    1.246610    1.556011
H       2.557453    0.753160   -1.336606
H       4.284382    2.918653   -1.158656
