17

N      -0.204883   -1.232985   -0.127590
C      -0.107988   -0.082874   -0.057626
C       0.007552    1.364569    0.036423
C      -0.096218    2.085877    1.420442
C       1.052977    1.387648    2.170340
N       2.181355    1.833090    1.290134
C       2.085071    3.330148    1.522970
C       0.755590    3.273756    0.781736
C       1.364273    2.086707   -0.013016
H      -0.655654    1.831153   -0.698346
H      -1.060762    2.235374    1.900913
H       1.207969    1.737100    3.192825
H       0.963865    0.299342    2.180055
H       2.135953    3.637307    2.571411
H       2.857528    3.848058    0.947746
H       0.221222    4.113284    0.336676
H       1.982303    2.158121   -0.904774
