21

C       0.016469    1.567092   -0.007344
C       0.025730    0.038182   -0.003354
O      -1.315682   -0.463705   -0.002717
C       0.674261   -0.530052   -1.271148
C       0.600999   -2.061800   -1.303918
C       0.994400   -2.673696    0.011158
C       1.036530   -1.990644    1.155275
C       0.760040   -0.513825    1.250071
O       1.970529    0.199806    1.534582
H       1.030074    1.970890   -0.033351
H      -0.545140    1.931911   -0.872316
H      -0.463959    1.951820    0.901005
H      -1.768348   -0.094744    0.763182
H       0.187358   -0.103817   -2.153838
H       1.721853   -0.205342   -1.292131
H      -0.422264   -2.375133   -1.547465
H       1.237598   -2.455153   -2.105873
H       1.228403   -3.736201    0.012404
H       1.330558   -2.479627    2.080772
H       0.112542   -0.312022    2.115744
H       2.673668   -0.232341    1.038421
