18

O       0.093790    1.400187   -0.145431
C       0.097614   -0.005336    0.039519
C      -1.365540   -0.482136    0.018567
C      -1.467464   -2.010971   -0.017747
C      -2.890749   -2.515401   -0.336057
C      -2.938481   -3.969264   -0.470003
N      -2.955813   -5.119860   -0.576180
C      -2.114479    0.143197    1.185999
O      -2.809837   -0.469486    1.959250
H       0.987405    1.730388   -0.014188
H       0.649668   -0.515809   -0.763906
H       0.569158   -0.287483    0.994063
H      -1.802240   -0.047913   -0.894793
H      -0.775229   -2.399956   -0.771725
H      -1.157157   -2.423583    0.947474
H      -3.574980   -2.208086    0.458973
H      -3.252604   -2.071986   -1.271546
H      -1.962064    1.236003    1.290245
