18

C      -0.090988    1.581325    0.012539
C      -0.050343    0.042829   -0.012961
C      -1.468971   -0.551954    0.042219
C       0.707767   -0.463524   -1.207375
N       0.334454   -0.238697   -2.471257
N       1.258438   -0.846346   -3.195881
N       2.230750   -1.466607   -2.520561
C       1.891417   -1.230260   -1.259285
O       2.601606   -1.675879   -0.204453
H       0.917792    2.004940    0.017894
H      -0.612532    1.965567   -0.869464
H      -0.616369    1.937940    0.904440
H       0.499965   -0.300368    0.870919
H      -2.044883   -0.251767   -0.838577
H      -1.440112   -1.645384    0.068600
H      -1.998740   -0.202241    0.934259
H       1.234465   -0.844108   -4.201232
H       3.356967   -2.169253   -0.546568
