16

O       0.043062    0.055132    0.231537
C       0.003671    1.236563    0.035803
C      -1.257310    2.112728   -0.124124
N      -0.848549    3.346539   -0.793258
C       0.020590    4.319574   -0.058107
C       0.532674    3.988544    1.302559
C       1.239544    2.853423    1.286179
C       1.200096    2.216000   -0.097182
C       0.614512    3.312677   -0.990112
H      -1.989019    1.593203   -0.750345
H      -1.718394    2.279952    0.853996
H      -0.171113    5.349223   -0.340261
H       0.334793    4.599381    2.174691
H       1.659935    2.341958    2.143942
H       2.114821    1.724971   -0.425785
H       1.002488    3.526311   -1.980344
