15

O       0.094381    1.368334   -0.101847
C       0.001197   -0.008905   -0.090886
C       0.685351   -0.702566   -1.276823
O       0.228340   -2.054226   -1.233321
C      -0.890472   -2.094577   -0.383719
C      -0.733732   -1.735063    1.096352
C      -1.376578   -0.771760    0.012410
C       0.302138   -0.688454    1.258310
O       0.898421   -0.237034    2.204187
H       0.402104    1.634123    0.776652
H       0.392165   -0.215111   -2.217168
H       1.775682   -0.692030   -1.191956
H      -1.555699   -2.922756   -0.595800
H      -1.213523   -2.300222    1.885894
H      -2.368111   -0.343792    0.002177
