19

C       0.133310    1.357444   -0.132997
O      -0.146414    0.004602    0.168350
C       0.670177   -0.542708    1.190184
C       0.078487   -1.912248    1.558194
C      -1.360184   -1.800484    2.086116
C      -2.003933   -3.156044    2.255817
O      -2.510789   -3.560577    3.270039
C       2.073197   -0.666817    0.771918
C       3.218651   -0.778787    0.425124
H       1.156636    1.485586   -0.509405
H      -0.575146    1.662520   -0.906017
H       0.000114    2.001711    0.749599
H       0.631017    0.112972    2.078113
H       0.107485   -2.541602    0.661651
H       0.727245   -2.380770    2.304769
H      -1.402692   -1.270337    3.042368
H      -1.950246   -1.238184    1.350840
H      -1.980501   -3.788975    1.336669
H       4.232121   -0.875121    0.121611
