15

C      -0.002240    1.510931    0.081870
C       0.012402    0.023824    0.018708
C      -0.005450   -0.757131   -1.080973
N       0.017944   -2.127320   -0.748675
C       0.052457   -2.311482    0.622833
O       0.077630   -3.370442    1.198889
C       0.051160   -0.890944    1.215742
C      -0.042555   -0.345291   -2.438280
N      -0.072755   -0.019569   -3.549461
H       0.886657    1.892538    0.599379
H      -0.032130    1.953024   -0.917039
H      -0.872148    1.873290    0.643566
H       0.009671   -2.885275   -1.411436
H       0.943193   -0.747096    1.836818
H      -0.812869   -0.766290    1.879110
