16

N      -0.387407   -0.832963   -0.876027
C      -0.246087    0.225175   -0.430370
C      -0.027365    1.550257    0.120862
C       0.066169    1.720233    1.675475
C       1.269350    2.685734    1.473998
C       1.396435    2.155241    0.044163
C       2.562082    1.529550   -0.613107
N       2.026038    2.831289   -1.071255
H      -0.764292    2.243182   -0.299778
H      -0.825492    2.116139    2.161758
H       0.356402    0.786124    2.158450
H       0.970663    3.737777    1.489498
H       2.129811    2.551056    2.131580
H       3.539885    1.580883   -0.141925
H       2.390165    0.646813   -1.223528
H       1.484527    2.710565   -1.924443
