18

C       0.003671    1.411048   -0.016486
O       0.087788   -0.002655   -0.013281
C       0.688086   -0.532755    1.090462
C       1.973440   -0.191146    1.867798
C       0.622731   -0.281979    2.576063
N       0.819053   -1.765379    2.884001
C       2.145376   -1.699902    2.160533
C       0.908770   -2.038171    1.400997
C       0.407003   -3.287774    0.764720
H       1.001440    1.871326    0.000347
H      -0.506272    1.695428   -0.938405
H      -0.573360    1.779824    0.842859
H       2.664734    0.634405    1.780079
H       0.097939    0.413696    3.219095
H       2.994890   -2.310454    2.448094
H       0.701451   -4.152684    1.367305
H      -0.685679   -3.281142    0.690706
H       0.817290   -3.411542   -0.243039
