17

C       0.059963   -1.264100   -0.444409
C       0.043878   -0.097707   -0.155162
C       0.048534    1.320473    0.132432
C      -0.493407    2.280359   -0.982290
C       0.841697    3.077811   -0.959853
C       1.411325    2.115266    0.121078
O       1.538150    2.625350    1.429000
C       0.231050    2.674255    1.955346
O      -0.471581    1.565318    1.435283
H       0.069736   -2.298655   -0.684310
H      -0.707374    1.770772   -1.922551
H      -1.383548    2.826879   -0.663913
H       1.399091    3.063690   -1.898399
H       0.766147    4.112378   -0.617907
H       2.322713    1.573313   -0.129741
H       0.279075    2.588377    3.043824
H      -0.268938    3.617035    1.671522
