21

C      -0.075736    1.696556   -0.068909
C       0.002824    0.182129   -0.104727
C       0.831882   -0.619925   -1.142393
C       2.065149   -0.165822   -0.335011
N       1.069207   -0.528643    0.783588
C       0.779049   -1.768185   -0.103306
C      -0.487532   -2.538683    0.212590
C      -0.443836   -3.605852    1.243994
N      -1.153459   -2.347311    1.516252
H       0.850498    2.205504   -0.343054
H      -0.856597    2.034438   -0.758883
H      -0.358691    2.027819    0.935820
H      -0.990890   -0.222453    0.098663
H       0.702768   -0.679677   -2.229645
H       2.948851   -0.809607   -0.350173
H       2.355687    0.883545   -0.348800
H       1.646577   -2.436518   -0.123759
H      -1.182996   -2.656648   -0.616693
H      -1.078406   -4.483166    1.152940
H       0.507177   -3.783197    1.741594
H      -0.555559   -1.744296    2.080669
