18

C      -0.124511    1.572127    0.046361
C       0.054030    0.060788    0.014503
O      -1.190596   -0.595200   -0.157064
C       1.157621   -0.535964   -0.938155
C       1.781145   -1.260328    0.268342
C       2.181349   -0.250526    1.320185
C       0.737926   -0.620447    1.208874
C       2.285894   -2.593184    0.258827
N       2.695453   -3.675986    0.236240
H       0.816540    2.091934    0.245350
H      -0.498988    1.932490   -0.919874
H      -0.848179    1.849763    0.818345
H      -1.605440   -0.246860   -0.954024
H       0.705284   -1.220925   -1.655828
H       1.821354    0.163846   -1.455018
H       2.697789   -0.660881    2.180848
H       2.544430    0.723050    1.002133
H       0.191678   -1.098041    2.012230
