19

C      -0.246488    1.489914   -0.042678
C       0.097496   -0.010111    0.026391
C       0.790452   -0.545502   -1.182956
C       2.097309   -0.869238   -1.412659
N       2.292563   -1.316023   -2.710292
C       1.104357   -1.258146   -3.243937
O       0.774540   -1.599631   -4.505636
N       0.139565   -0.807300   -2.398633
C      -1.267351   -0.663222   -2.711989
H       0.658228    2.084312   -0.199843
H      -0.934684    1.710522   -0.864867
H      -0.720920    1.823048    0.886056
H       0.756630   -0.186988    0.882929
H      -0.817746   -0.582658    0.231296
H       2.918506   -0.811000   -0.714035
H       1.590681   -1.913415   -4.914535
H      -1.881413   -1.075195   -1.906544
H      -1.544151    0.385932   -2.862091
H      -1.477228   -1.213353   -3.629634
