17

O       0.041549   -0.044307   -0.211071
C      -0.016191    1.155919   -0.084844
N      -1.123948    1.969594   -0.290068
C      -0.873067    3.315131    0.198220
C       0.666570    3.393901    0.123847
C       1.275085    4.200254   -1.058715
O       1.703353    5.244304   -0.164583
C       1.352931    4.466900    0.996086
N       1.021738    2.007262    0.293685
H      -2.029347    1.538294   -0.192540
H      -1.352292    4.078954   -0.420346
H      -1.204422    3.453471    1.238522
H       2.122101    3.696515   -1.545425
H       0.582258    4.563950   -1.826244
H       0.709809    5.021137    1.690730
H       2.234975    4.099498    1.537855
H       1.962464    1.685030    0.126133
