19

C       0.046800    1.437848   -0.213746
C       0.023062   -0.006511   -0.059880
C      -0.016056   -1.206296    0.067690
C      -0.061765   -2.646885    0.226026
O      -1.111374   -3.227102    0.448443
C       1.247345   -3.341749    0.089681
C       1.398658   -4.727614    0.694812
C       1.368907   -4.600095   -0.790303
C       0.218821   -5.127158   -1.616942
H       1.066613    1.832569   -0.158237
H      -0.374018    1.728480   -1.182771
H      -0.550670    1.924527    0.564602
H       2.110925   -2.686883    0.094500
H       2.333279   -4.952558    1.196129
H       0.504772   -5.110456    1.176073
H       2.336599   -4.659823   -1.282352
H      -0.732968   -4.998958   -1.098763
H       0.156502   -4.611531   -2.581274
H       0.361633   -6.194614   -1.818242
