16

C      -0.064593    1.511058    0.072611
C       0.011099    0.022775   -0.022049
C       0.243020   -0.753747   -1.127274
N       0.213759   -2.064812   -0.684560
C      -0.031027   -2.005088    0.645907
N      -0.132645   -3.139247    1.448199
C      -0.004062   -4.425038    1.019734
O       0.218629   -4.755508   -0.130941
N      -0.160749   -0.779969    1.093866
H       0.096148    1.973738   -0.904842
H      -1.041946    1.834419    0.447226
H       0.689680    1.902246    0.764105
H       0.421602   -0.509165   -2.160743
H       0.339225   -2.932207   -1.185534
H      -0.317605   -2.951388    2.422256
H      -0.125503   -5.150564    1.842475
