14

O       0.003656   -0.010624   -0.242920
C      -0.031134    1.178347   -0.058031
C      -1.312344    1.983884    0.053166
C      -1.274677    2.998872    1.209420
C       0.032558    3.730743    1.296217
C       1.179263    3.292208    0.755888
C       1.281776    2.000871    0.053075
O       2.318616    1.566524   -0.396859
H      -1.411143    2.539234   -0.890799
H      -2.160943    1.299991    0.126346
H      -2.095417    3.717454    1.107058
H      -1.454623    2.486989    2.166046
H       0.030341    4.668073    1.848525
H       2.105330    3.851426    0.849965
