16

O      -0.072776    1.251835   -0.732953
C       0.058034    0.154643    0.155437
C      -1.265712   -0.556887    0.319852
N      -1.708955   -1.333230   -0.858637
C      -1.457168   -2.028315    0.422551
C      -0.361436   -3.069069    0.380640
O      -0.783599   -4.208216   -0.350349
H      -0.410107    0.885019   -1.558723
H       0.832203   -0.543683   -0.188964
H       0.385190    0.570492    1.114301
H      -2.023861    0.054838    0.806832
H      -2.706812   -1.213745   -1.006957
H      -2.337323   -2.354328    0.974996
H       0.558465   -2.645097   -0.043182
H      -0.133259   -3.418572    1.393144
H      -1.030839   -3.884987   -1.224775
