17

C       0.135621    1.516059    0.061082
C      -0.063849    0.036405    0.038845
C      -1.203687   -0.679132    0.022172
C      -2.584129   -0.089294    0.022631
C      -1.113413   -2.148743    0.001888
N      -2.174074   -2.863683   -0.013869
N       0.179534   -2.722896    0.000545
C       1.180184   -1.944179    0.017410
O       1.168708   -0.595728    0.036969
H       0.706582    1.806428    0.949996
H       0.717440    1.831399   -0.812118
H      -0.810129    2.054351    0.062988
H      -3.134632   -0.432608   -0.858755
H      -3.145108   -0.458612    0.886737
H      -2.585126    1.001009    0.038925
H      -1.904342   -3.849325   -0.026403
H       2.200973   -2.316975    0.017539
