21

C      -0.180384    1.338172    0.127195
C      -0.115789   -0.144457   -0.149324
O       0.692297   -0.696917   -0.849230
O      -1.101560   -0.792133    0.521415
C      -1.135119   -2.199783    0.359294
C      -2.371460   -2.876236    0.863954
C      -2.090192   -2.813148   -0.631077
C      -2.951341   -1.897165   -1.477556
C      -1.634686   -4.081611   -1.325856
H       0.599828    1.846535   -0.437803
H      -1.162022    1.731656   -0.151055
H      -0.047241    1.524888    1.196703
H      -0.163492   -2.660802    0.495615
H      -2.263787   -3.820998    1.386316
H      -3.153277   -2.231366    1.250914
H      -3.226276   -0.988151   -0.937488
H      -2.421810   -1.600143   -2.390220
H      -3.874518   -2.404980   -1.778639
H      -2.493560   -4.695869   -1.620960
H      -1.060912   -3.847420   -2.229381
H      -0.999567   -4.691372   -0.675581
