23

C      -0.091208    1.511389   -0.015620
C       0.028332    0.012256   -0.024806
C       0.442373   -0.798686   -1.280995
C      -0.444591   -1.818100   -0.546545
C       0.375354   -2.186624    0.702922
C       0.741084   -0.728072    1.164514
C       2.250348   -0.469943    1.243748
C       0.081008   -0.380809    2.504935
O      -1.258898   -0.703265   -0.066728
H       0.900203    1.975526   -0.036897
H      -0.651535    1.857160   -0.888390
H      -0.611113    1.858500    0.882293
H      -0.039514   -0.407899   -2.178439
H       1.493706   -1.030813   -1.464775
H      -1.013319   -2.596221   -1.055944
H      -0.229251   -2.717723    1.442133
H       1.253040   -2.796955    0.468731
H       2.767588   -0.711734    0.310723
H       2.461780    0.578765    1.482033
H       2.701171   -1.078355    2.035456
H       0.442489   -1.048751    3.294577
H       0.311980    0.644610    2.814931
H      -1.004103   -0.487583    2.436412
