15

C       0.011861    1.500332    0.049946
C      -0.011300    0.046606    0.019108
C      -0.045936   -1.156119    0.014872
C      -0.049200   -2.606406   -0.063996
O      -1.347040   -3.111970    0.236952
C      -1.437158   -4.434391    0.523351
O      -2.483310   -4.969362    0.717455
C       0.406919   -3.073794   -1.463931
O      -0.118172   -3.975709   -2.051511
H       0.869434    1.870822    0.621229
H       0.071743    1.918242   -0.960310
H      -0.897284    1.889745    0.519992
H       0.690280   -3.018219    0.645766
H      -0.452648   -4.933794    0.586155
H       1.277686   -2.513821   -1.862742
