19

C      -0.035842    1.393901    1.251810
C      -0.179644    0.334840    0.140127
C       1.054894   -0.586308    0.075103
C      -1.408439   -0.439638    0.316144
C      -2.407933   -1.088910    0.495637
C      -3.646576   -1.853006    0.682767
O      -4.131839   -1.834482    1.998215
C      -4.693722   -1.277047   -0.276883
O      -5.739737   -0.840875    0.130164
H       0.863597    1.994663    1.084651
H      -0.900457    2.062018    1.274102
H       0.047433    0.914066    2.231521
H      -0.255765    0.864518   -0.819937
H       1.178391   -1.130689    1.016174
H       0.958915   -1.318888   -0.730535
H       1.958486    0.005687   -0.101161
H      -3.470034   -2.897136    0.369176
H      -4.969677   -1.345612    1.954158
H      -4.419238   -1.271486   -1.348860
