17

N       0.180325    1.216947   -0.641132
C      -0.035117   -0.083950   -0.037957
C       0.421774   -0.255190    1.420497
O       1.341997    0.286325    1.961557
O      -0.402122   -1.126996    2.056044
C      -1.470190   -1.554021    1.181201
C      -1.481998   -0.540129    0.049691
C      -2.620741    0.367548   -0.225989
N      -2.328061   -0.783602   -1.107362
H      -0.064233    1.947010    0.022680
H       1.170312    1.341178   -0.829298
H       0.524587   -0.826603   -0.626748
H      -1.249629   -2.562659    0.813041
H      -2.392813   -1.581955    1.763839
H      -3.535106    0.279391    0.354366
H      -2.397717    1.361195   -0.601664
H      -1.855803   -0.444898   -1.944341
