23

C       0.146612    1.569611    0.058002
C       0.060161    0.051536    0.041343
C       0.990850   -0.730609   -0.938107
C       1.320076   -1.691145    0.212266
C       1.160863   -3.195261    0.205155
C       2.520040   -2.556976    0.412041
C       3.583695   -2.665917   -0.656409
O       3.021643   -2.524046    1.725942
C       0.686622   -0.738715    1.232249
H       1.180324    1.902070    0.208707
H      -0.207728    2.000514   -0.885456
H      -0.459533    1.994254    0.866351
H      -0.979131   -0.259615   -0.107518
H       0.522701   -1.159969   -1.828574
H       1.854780   -0.133698   -1.252902
H       0.690974   -3.648298    1.072920
H       0.958276   -3.693075   -0.739319
H       3.147260   -2.625121   -1.658500
H       4.308399   -1.850371   -0.561377
H       4.130039   -3.613704   -0.570498
H       3.373292   -3.397768    1.930219
H       1.437844   -0.156086    1.775496
H      -0.004750   -1.172872    1.959011
