18

C      -0.024541    1.550695    0.027477
C       0.002501    0.017158    0.003754
C       0.761938   -0.528272    1.232930
C      -1.434977   -0.547649   -0.010617
C       0.725084   -0.452661   -1.266947
O       1.184273    0.305057   -2.093749
C       0.844974   -1.895617   -1.453032
C       0.956107   -3.081723   -1.628437
H       0.987126    1.964193    0.022976
H      -0.545538    1.950570   -0.846056
H      -0.538468    1.899965    0.928553
H       0.247471   -0.221333    2.149239
H       0.813171   -1.620397    1.221705
H       1.783907   -0.137940    1.272917
H      -2.000535   -0.170571   -0.868702
H      -1.437053   -1.640224   -0.052954
H      -1.959617   -0.241590    0.900202
H       1.060538   -4.126517   -1.794516
