11

N       0.029603   -3.679178   -0.018153
C       0.023074   -2.517171   -0.011627
C       0.014365   -1.153662   -0.003924
C       0.002446    0.054913    0.003027
C       0.004661    1.469475    0.010929
N      -1.125002    2.178808    0.029869
N      -0.657956    3.438675    0.030795
C       0.693888    3.449821    0.012992
N       1.153130    2.218552   -0.000015
H      -1.307348    4.209582    0.043726
H       1.280749    4.355793    0.010348
