23

C      -0.076822    1.592816   -0.098574
C      -0.029721    0.063756   -0.160148
C      -1.352351   -0.583545    0.275899
C      -1.389804   -2.094898    0.111201
C      -0.395385   -2.883282    0.950246
C      -0.501112   -4.408479    0.857234
O       0.549581   -5.057489    1.557202
C      -2.632349   -2.710732   -0.386083
O      -1.513098   -2.526257   -1.258206
H       0.874778    2.032811   -0.412335
H      -0.860059    1.991351   -0.752812
H      -0.286409    1.943530    0.918338
H       0.197485   -0.260839   -1.182582
H       0.791089   -0.296365    0.471406
H      -1.561124   -0.333107    1.324989
H      -2.168207   -0.155828   -0.318525
H       0.616640   -2.593496    0.635811
H      -0.487940   -2.579067    1.999761
H      -1.422168   -4.759325    1.333168
H      -0.534666   -4.711324   -0.198693
H       1.372104   -4.866272    1.095361
H      -2.875519   -3.745548   -0.154320
H      -3.494362   -2.077024   -0.592837
