14

N      -0.060475    1.215701    0.242163
C      -0.020420   -0.017958    0.020695
O       1.146889   -0.754858   -0.144106
C       0.887960   -2.054119   -0.554538
O       1.766583   -2.818068   -0.801968
C      -0.612416   -2.273663   -0.598346
C      -1.185094   -2.854149    0.716921
O      -1.572742   -1.535319    1.163216
C      -1.205859   -0.946086   -0.106732
H       0.876952    1.616152    0.311731
H      -0.927161   -2.727078   -1.535873
H      -2.055031   -3.503404    0.569275
H      -0.475068   -3.339171    1.393672
H      -2.051950   -0.480441   -0.614998
