16

C       0.070031    1.364152    0.098165
N      -0.083016   -0.074384    0.062680
C      -1.315242   -0.653598    0.044033
N      -2.381907    0.061644   -0.007212
C      -1.297064   -2.133916    0.077965
C      -2.280824   -3.077679    0.060021
C      -1.569169   -4.301779    0.123199
N      -0.271274   -4.123042    0.176034
O      -0.096143   -2.744655    0.146766
H       1.133857    1.605853    0.060232
H      -0.434941    1.823047   -0.757256
H      -0.367063    1.795566    1.006797
H       0.718294   -0.663405    0.201982
H      -3.212984   -0.523162   -0.038210
H      -3.346142   -2.930805    0.010209
H      -1.958461   -5.309962    0.132437
