23

C      -0.059486    1.592646    0.085718
C       0.039737    0.085438    0.047541
C       1.301471   -0.673312   -0.358924
C       2.641569    0.056750   -0.333811
C       2.990113    0.083092    1.171649
C       3.772707    1.290255    1.656069
O       1.723420    0.040162    1.849583
C       0.817041   -0.713682    1.069622
C       0.253735   -1.918279    1.773874
H       0.776938    2.034134    0.631115
H      -0.082058    2.020806   -0.922747
H      -0.978063    1.900328    0.596779
H      -0.871121   -0.406726   -0.288654
H       1.188792   -1.532124   -1.011445
H       3.401521   -0.474744   -0.913349
H       2.574730    1.073828   -0.737076
H       3.548470   -0.834877    1.420870
H       3.248659    2.218931    1.408961
H       3.910250    1.251784    2.740274
H       4.760868    1.314964    1.185560
H      -0.305949   -1.619592    2.666868
H      -0.426573   -2.468051    1.116403
H       1.052562   -2.598513    2.089067
