21

O      -0.011352    1.486479   -0.036944
C       0.028780    0.069959   -0.005979
C       0.936910   -0.450706    1.121422
C       1.533473   -1.833873    0.846740
O       0.614817   -2.909438    0.884542
C      -0.391927   -2.891226   -0.108699
C      -1.576693   -1.984811    0.259358
C      -1.415434   -0.464731    0.042621
O      -2.045394    0.261175    1.109791
H      -0.704089    1.735612    0.589350
H       0.466819   -0.235289   -0.965332
H       1.766175    0.260111    1.210272
H       0.403353   -0.450701    2.078533
H       2.050787   -1.817260   -0.129099
H       2.281170   -2.071679    1.609616
H       0.031674   -2.628813   -1.091799
H      -0.752162   -3.922990   -0.178282
H      -2.462218   -2.329320   -0.289122
H      -1.777780   -2.148611    1.323297
H      -1.882597   -0.171865   -0.908247
H      -2.998129    0.165643    1.024908
