15

C      -0.046424    1.538354    0.062744
C      -0.007868    0.046961   -0.002938
C       0.001509   -0.804083   -1.075187
O       0.018407   -2.086124   -0.663772
N       0.033673   -2.112138    0.722873
C       0.008417   -0.853222    1.109486
N      -0.072199   -0.506083    2.445522
C      -0.012086   -0.533407   -2.515572
O      -0.003739   -1.377710   -3.378872
H       0.872808    1.944218    0.503550
H      -0.161091    1.989581   -0.924655
H      -0.880768    1.876196    0.687651
H       0.115472   -1.281621    3.067263
H       0.460808    0.313868    2.698808
H      -0.030810    0.550347   -2.758130
