14

O       0.062610   -0.000691   -0.440928
C       0.014589    1.166998   -0.180770
O      -1.107090    1.950870   -0.100755
N      -0.704653    3.263323    0.231260
N       0.543267    3.279933    0.343407
N       1.038511    2.053117    0.108737
C       2.437365    1.730767    0.157347
C       3.461615    2.726015   -0.306543
C       3.333868    2.393175    1.163498
H       2.560617    0.679325   -0.069958
H       4.312054    2.349807   -0.863053
H       3.096039    3.695028   -0.626352
H       2.885054    3.145141    1.802257
H       4.094800    1.783690    1.636777
