14

C      -0.002792   -1.160215   -0.004569
C       0.022175    0.039931    0.002240
C       0.006756    1.493825    0.011027
O       1.362106    1.966025   -0.002332
C       1.509546    3.300554    0.003807
C       2.681615    3.990002   -0.006234
O       2.355278    5.325928    0.005652
C       1.014956    5.352177    0.021981
N       0.448060    4.185075    0.021862
H      -0.020820   -2.222076   -0.010643
H      -0.531522    1.883101   -0.861579
H      -0.510521    1.872676    0.900753
H       3.723479    3.731451   -0.020337
H       0.540315    6.320352    0.033463
