16

C      -0.313838    1.287195   -0.441733
N      -0.129379   -0.047571    0.088894
C      -1.063544   -1.169575    0.146767
C      -0.956688   -2.110644   -1.024201
C      -0.609004   -1.767563   -2.438432
O      -0.408643   -0.663184   -2.877702
C       0.099845   -2.132795    0.104076
C       0.981820   -0.875598   -0.010735
O       2.151196   -0.647041   -0.143100
H       0.670540    1.760232   -0.476735
H      -0.731762    1.262328   -1.452406
H      -0.959298    1.874945    0.218351
H      -1.904366   -1.164559    0.829237
H      -1.607315   -2.982975   -0.958474
H      -0.536024   -2.661433   -3.097201
H       0.286237   -3.020458    0.691059
