20

C      -0.206716    1.642351   -0.131537
C      -0.074203    0.123597   -0.002273
C       0.912898   -0.616343   -1.029642
O       1.485129    0.115216   -2.080291
C       1.828677   -0.780853    0.186697
C       2.513041   -1.622917    1.301865
C       1.923253   -0.288133    1.930201
C       2.559732    0.481922    0.763257
N       0.661901   -0.617537    1.116837
H       0.659838    2.109228   -0.602497
H      -1.079072    1.880834   -0.750717
H      -0.369644    2.101075    0.848707
H      -1.080625   -0.304511   -0.006783
H       0.477838   -1.563123   -1.371885
H       0.881441    0.103572   -2.829262
H       1.988783   -2.537455    1.577908
H       3.600999   -1.721353    1.304915
H       1.891128   -0.031120    2.992144
H       3.651924    0.490052    0.705286
H       2.148779    1.459722    0.536270
