19

C      -0.166516    1.635609   -0.077042
C       0.000659    0.125038   -0.057859
C       0.794984   -0.484178   -1.241524
C       1.852045   -0.826576   -0.176613
O       1.025820   -0.289563    0.884641
C      -1.322902   -0.618071    0.253303
N      -1.061078   -2.047517    0.401354
C      -2.002176   -0.040081    1.434476
N      -2.549032    0.363017    2.370310
H       0.784138    2.112055   -0.329877
H      -0.910818    1.934450   -0.823846
H      -0.488534    2.005899    0.899704
H       0.321866   -1.349711   -1.703009
H       1.098147    0.234855   -2.003850
H       2.054871   -1.892722   -0.032149
H       2.801750   -0.285519   -0.255699
H      -1.986954   -0.471105   -0.607934
H      -0.433536   -2.170941    1.191243
H      -1.920001   -2.545025    0.611810
