17

O      -0.054945    1.336759   -0.100615
C       0.010847   -0.026818   -0.044977
C      -0.094244   -0.843432   -1.146185
N      -0.075063   -2.146009   -0.654756
C       0.166288   -3.464867   -1.203977
C      -0.038774   -4.331299    0.060846
N       0.374570   -3.431717    1.160931
C       0.121364   -2.130682    0.692116
C       0.161131   -0.828623    1.136736
H       0.089038    1.680490    0.785195
H      -0.258136   -0.616719   -2.184655
H      -0.535084   -3.719670   -2.002985
H       1.189695   -3.555262   -1.594234
H      -1.097325   -4.616738    0.141388
H       0.568121   -5.239586    0.047825
H      -0.061710   -3.650206    2.047424
H       0.278949   -0.480641    2.151079
