18

N      -0.058506    1.495870    0.086956
C      -0.109600    0.030274    0.036682
C      -1.515192   -0.405461    0.055354
N      -2.619151   -0.744604    0.044574
C       0.614109   -0.580805   -1.177561
C       2.158840   -0.436006   -1.281285
C       2.189080   -1.960256   -1.383280
C       1.554454   -2.577455   -0.208068
N       0.673019   -2.083692   -1.287277
H       0.912293    1.793485    0.117483
H      -0.463031    1.886376   -0.759848
H       0.350732   -0.335831    0.961570
H       0.119329   -0.212123   -2.080853
H       2.478054    0.082698   -2.185960
H       2.692031   -0.007951   -0.424970
H       2.753861   -2.528427   -2.114173
H       1.545091   -3.660656   -0.145262
H       1.588406   -2.076087    0.756244
