14

C      -0.103473    1.536713    0.177864
C       0.028420    0.031501   -0.037434
C       0.765705   -0.309009   -1.330435
O       1.196202    0.512352   -2.096160
N       0.889773   -1.696922   -1.533884
C       1.497694   -2.360250   -2.596402
O       2.033521   -1.858521   -3.544145
H       0.880000    2.010021    0.223862
H      -0.649898    2.000457   -0.646586
H      -0.635228    1.744428    1.110214
H       0.563936   -0.439247    0.798273
H      -0.959057   -0.448874   -0.067517
H       0.489809   -2.294073   -0.824373
H       1.420539   -3.457936   -2.449318
