21

C       0.026767    1.619309    0.037229
C       0.163365    0.100862   -0.095708
C       0.609920   -0.567188    1.204809
C       0.711554   -2.082154    1.123884
O       0.317162   -2.709610    0.168279
C       1.363365   -2.774955    2.321936
C       1.069904   -4.278362    2.378222
C       2.045420   -5.009781    3.267042
O       1.747730   -5.729177    4.184679
H       0.977415    2.084184    0.322197
H      -0.292233    2.069872   -0.907367
H      -0.712884    1.888379    0.799813
H      -0.787527   -0.340428   -0.410757
H       0.879949   -0.144816   -0.887451
H       1.577105   -0.171778    1.546833
H      -0.090856   -0.335016    2.021404
H       2.446472   -2.599461    2.227899
H       1.066518   -2.270404    3.248514
H       0.052033   -4.479805    2.721005
H       1.164650   -4.675452    1.358566
H       3.116934   -4.832323    3.004176
