22

C       0.456197    1.518687    0.178371
C      -0.211809    0.177868   -0.115393
N       0.479429   -0.492772   -1.220545
C       1.608294   -1.363011   -0.890154
C       0.328323   -1.933733   -1.392834
C      -0.544222   -2.802633   -0.513410
C      -0.271500   -4.324711   -0.583185
C      -0.031125   -4.207860    0.934377
O      -0.220141   -2.776652    0.899762
H       1.487779    1.374708    0.516683
H       0.480061    2.143157   -0.719381
H      -0.084147    2.055235    0.964496
H      -0.247998   -0.433939    0.796846
H      -1.247877    0.345427   -0.435457
H       2.478024   -1.285727   -1.537747
H       1.821638   -1.533399    0.163072
H       0.261843   -2.239192   -2.439015
H      -1.601669   -2.540441   -0.661467
H      -1.111032   -4.948820   -0.891603
H       0.612330   -4.590356   -1.166244
H      -0.780849   -4.698246    1.567194
H       0.968609   -4.479555    1.291709
