21

C       0.002465    1.595913    0.037694
C       1.531273    1.780820   -0.031981
C       1.793210    1.009994   -1.347046
C       1.334050   -0.311041   -0.709250
O       2.339354   -0.443195    0.302390
C       2.161088    0.792974    1.033336
C       1.189994    0.422135    2.163976
C       0.055582   -0.406356    1.492240
C      -0.029033    0.040943    0.016809
H      -0.471088    2.007033    0.932533
H      -0.482718    2.051660   -0.830249
H       1.900791    2.804755    0.035289
H       1.182366    1.378959   -2.174982
H       2.838821    0.948739   -1.653878
H       1.326777   -1.215963   -1.317365
H       3.136867    1.128687    1.392416
H       1.713851   -0.175169    2.915410
H       0.807414    1.313617    2.672340
H       0.278928   -1.474164    1.559277
H      -0.904042   -0.240076    1.992059
H      -0.894455   -0.384769   -0.495054
