16

C      -0.110740    1.462994   -0.054088
C      -0.101941   -0.023847    0.040582
O      -0.344675   -0.765672   -1.248968
C      -0.338131   -1.848291   -0.363318
N       0.627364   -2.669833   -0.328599
C       1.304610   -2.270478    0.945198
C       0.685607   -0.869650    1.208849
O       1.160071   -0.070150    2.233666
C      -0.769085   -1.021549    0.883278
H       0.652223    1.804314   -0.759523
H      -1.086547    1.823274   -0.393602
H       0.111268    1.882820    0.929493
H       1.146118   -2.937852    1.808637
H       2.376926   -2.243901    0.726944
H       0.926572   -0.473171    3.078872
H      -1.677501   -1.041464    1.472514
