15

N       0.065103    1.373285    0.159466
C      -0.032757    0.023946    0.005945
C      -1.196161   -0.665366    0.044885
C      -1.247270   -2.109865   -0.015865
O      -2.220284   -2.793168    0.147499
O      -0.047579   -2.779946   -0.316445
C       1.104064   -2.117623   -0.643465
N       2.024695   -2.667189   -1.309582
C       1.269051   -0.717435   -0.109192
H       0.906893    1.839895   -0.133714
H      -0.774461    1.929321    0.134960
H      -2.152553   -0.175675    0.181822
H       1.756720   -3.621861   -1.557610
H       1.981827   -0.195342   -0.753001
H       1.728263   -0.771188    0.888057
