18

C       0.059387    1.512907   -0.015219
C       0.013070   -0.000638   -0.009444
C      -1.300181   -0.706002    0.429351
N      -0.563221   -1.613004    1.373650
C       0.636276   -2.184880    0.661576
C       0.662652   -0.791496    1.173253
C       0.699529   -2.161833   -0.840275
O       0.918549   -3.106863   -1.555215
C       0.523610   -0.701432   -1.275008
H       1.080061    1.876687   -0.178458
H      -0.569299    1.920319   -0.814534
H      -0.297447    1.924719    0.934649
H      -1.952340   -0.066446    1.029572
H      -1.893309   -1.213594   -0.339879
H       1.073639   -3.019234    1.196171
H       1.277183   -0.424791    1.987874
H      -0.146286   -0.616716   -2.135943
H       1.506994   -0.314621   -1.573595
