14

N      -0.040154    1.375954    0.166074
C       0.037435   -0.002372    0.049778
N      -1.050701   -0.759582    0.027101
N      -0.615914   -2.089468    0.063197
C       0.736453   -2.103104   -0.029315
C       1.214479   -0.810061    0.011481
N       2.597360   -0.795681    0.027728
C       2.926931   -2.060501   -0.002066
N       1.829650   -2.926049   -0.023342
H       0.715732    1.864119   -0.292544
H      -0.945519    1.742125   -0.095624
H      -1.263765   -2.774451   -0.286186
H       3.933580   -2.452071   -0.017267
H       1.864348   -3.929231   -0.072752
