14

C       0.223921    1.589999    0.070277
C       1.250521    0.562332   -0.219506
N      -0.141978    0.161125    0.055305
C      -0.389255   -0.437579    1.302721
C      -1.308580   -1.426031    1.568069
N      -1.159148   -1.653016    2.894680
N      -0.212038   -0.864322    3.432014
N       0.255264   -0.126351    2.465883
H       0.271044    2.076499    1.039793
H      -0.211496    2.175284   -0.734214
H       1.578049    0.383855   -1.239423
H       1.983233    0.362647    0.556441
H      -2.013264   -1.950453    0.947126
H      -1.647942   -2.306050    3.485696
