18

C       0.109640    1.408802    0.175987
N       0.049906   -0.040875    0.267339
C      -1.032689   -0.625629   -0.055029
C      -1.171016   -2.123870    0.035885
C      -2.112591   -2.612097   -1.054044
O      -3.386930   -1.955785   -0.944192
C      -3.394401   -0.605061   -0.845142
N      -4.424464    0.112391   -1.022533
N      -2.184438   -0.000315   -0.519068
H       1.099026    1.748443    0.490582
H      -0.053931    1.772516   -0.850452
H      -0.629335    1.904403    0.825631
H      -0.181169   -2.575098   -0.049020
H      -1.584158   -2.394321    1.015325
H      -1.694328   -2.424838   -2.051337
H      -2.330833   -3.677290   -0.963243
H      -5.210597   -0.469283   -1.304053
H      -2.236650    1.006769   -0.517540
