17

O      -0.160857    0.015065    0.262071
C      -0.138369    1.213204    0.109784
C      -1.302761    2.110883   -0.076640
C      -0.906295    3.387661   -0.101734
C       0.584094    3.546840    0.064256
C       1.127545    2.101018    0.085721
C       2.099519    1.809842    1.251095
C       2.813038    0.544289    1.137306
C       3.443573   -0.473215    1.036791
H      -2.315622    1.736419   -0.149824
H      -1.561818    4.245250   -0.212415
H       1.018022    4.152568   -0.739578
H       0.806440    4.081141    0.998087
H       1.646939    1.883917   -0.854298
H       2.833358    2.624736    1.299971
H       1.545951    1.841635    2.198862
H       3.972248   -1.389849    0.951714
