23

C      -0.204207    1.562266    0.059051
C       0.014914    0.043369   -0.004191
C       0.829748   -0.428017   -1.192045
C       1.831692   -1.246264   -0.850991
C       2.812753   -1.917707   -1.759983
C       1.897343   -1.398561    0.636990
C       2.205255   -0.114809    1.389346
C       0.771420   -0.549151    1.200142
C      -0.036443   -0.965008    2.406450
H       0.747774    2.099822    0.105177
H      -0.746621    1.917202   -0.823729
H      -0.791604    1.837443    0.941642
H      -0.982259   -0.424824   -0.044050
H       0.609351   -0.107728   -2.205797
H       2.619185   -1.679226   -2.809361
H       3.842099   -1.619957   -1.523057
H       2.772365   -3.008890   -1.647790
H       2.184403   -2.348840    1.077667
H       2.610022   -0.205894    2.393059
H       2.601118    0.718500    0.817703
H      -0.520589   -0.101279    2.878915
H      -0.824952   -1.675469    2.131291
H       0.592630   -1.442095    3.164861
