16

O      -0.143874    1.333900   -0.031213
N       0.023430   -0.062134    0.003194
C      -1.094084   -0.653480   -0.046134
C      -2.558229   -0.236436   -0.059155
C      -2.934439   -1.749385    0.045446
C      -3.095466   -2.518816   -1.290626
O      -2.212812   -1.925086   -2.248479
C      -1.663714   -2.864921   -1.321854
C      -1.407383   -2.134832    0.029199
H       0.765376    1.648098    0.016750
H      -2.841020    0.359840    0.813411
H      -2.885430    0.278426   -0.964798
H      -3.580873   -2.068261    0.860741
H      -3.967251   -3.033384   -1.679018
H      -1.130838   -3.712527   -1.737328
H      -0.945402   -2.738969    0.809587
