15

O      -0.485524    0.680601    0.663606
C       0.343236    0.894526   -0.177933
C       1.449461    1.972832   -0.061746
C       1.453346    2.637889    1.349047
N       2.562698    1.922617    1.986469
C       3.248101    1.260892    1.002528
N       2.729052    1.212186   -0.169769
C       1.271156    2.912895   -1.160714
C       1.066148    3.673838   -2.068317
H       0.413177    0.310594   -1.116020
H       1.642474    3.713826    1.284594
H       0.505598    2.455399    1.860661
H       3.047229    2.321385    2.774798
H       4.185143    0.768321    1.246856
H       0.906563    4.351277   -2.870757
