20

C      -0.000919    1.443225    0.043901
N      -0.041266   -0.002281    0.025261
C      -0.018022   -0.795214   -1.107302
C       0.000795   -2.123653   -0.732211
C      -0.015216   -2.136606    0.688312
C      -0.038126   -0.833762    1.113521
C       0.010097   -0.660977    2.597702
C      -0.280685   -2.127214    3.061512
C       0.044014   -3.076452    1.860417
H       1.004079    1.821768    0.266780
H      -0.305966    1.826451   -0.932163
H      -0.691496    1.833280    0.797246
H      -0.033636   -0.339600   -2.085603
H       0.006080   -2.964296   -1.409696
H       0.994834   -0.316112    2.945776
H      -0.726540    0.043567    3.002559
H       0.275869   -2.389987    3.965107
H      -1.344603   -2.212063    3.302973
H      -0.667325   -3.908240    1.807865
H       1.039966   -3.527889    1.969604
