17

C      -0.064419    1.612513   -0.133379
C       0.011487    0.095553   -0.052023
C       0.723971   -0.643836   -1.190898
O       2.102627   -0.258792   -1.166286
C       1.676550   -1.291758   -0.262926
C       2.328228   -2.561555   -0.311920
N       2.838252   -3.599677   -0.280316
C       1.042438   -0.563609    0.960657
N       1.849092    0.332400    1.743582
H       0.897511    2.039794   -0.428286
H      -0.813012    1.924505   -0.868843
H      -0.338913    2.035012    0.836644
H      -0.980338   -0.335012    0.116615
H       0.335145   -1.013805   -2.132452
H       0.538801   -1.273104    1.621088
H       2.419366   -0.175010    2.412015
H       2.475242    0.857275    1.140435
