19

C       0.002238    1.460594    0.088672
C       0.019918   -0.052885   -0.000254
C       1.108647   -0.659185   -0.810486
C       1.017159   -1.865498   -1.372132
C      -0.185232   -2.758670   -1.191063
C      -1.082161   -2.237727   -0.079606
O      -0.341083   -2.171377    1.183857
C      -0.541133   -0.768540    1.233655
C      -1.341461   -0.722855   -0.034179
H       0.949216    1.840835    0.487848
H      -0.152947    1.914023   -0.896634
H      -0.801571    1.811681    0.744419
H       2.008191   -0.063052   -0.943890
H       1.836428   -2.249350   -1.973654
H      -0.756496   -2.859761   -2.126488
H       0.139831   -3.773081   -0.925795
H      -1.985034   -2.842721    0.051170
H      -0.659700   -0.297847    2.203771
H      -2.262335   -0.216934   -0.293290
