18

C       0.136165    1.518440   -0.321197
C       0.017772    0.035028    0.033852
N       0.456560   -0.794186   -1.103002
C       1.398635   -1.523057   -0.679251
O       1.776529   -1.456259    0.619150
C       0.917428   -0.478252    1.231317
C       1.770318    0.602759    1.899957
C       1.152524    1.264403    3.116290
O       2.857549    0.899733    1.470646
H       1.175509    1.792246   -0.517621
H      -0.448408    1.716319   -1.222743
H      -0.248723    2.155729    0.481620
H      -1.031651   -0.195064    0.247232
H       1.962855   -2.235509   -1.270181
H       0.310396   -0.990007    1.985601
H       0.098702    1.510957    2.947922
H       1.183258    0.564717    3.960711
H       1.713074    2.162792    3.376318
