21

C       0.053202    1.564315    0.063192
C       0.042597    0.064682   -0.000851
C      -0.888756   -0.792755    0.805898
C       0.599571   -0.969709    0.985048
C       1.210007   -1.777202   -0.158064
O       2.619589   -1.663602   -0.096775
C       0.841452   -3.249349   -0.283818
O       1.512905   -3.726521   -1.450840
C       0.577341   -0.765332   -1.182693
H       1.037662    1.965892   -0.201889
H      -0.679709    1.997231   -0.629100
H      -0.194739    1.919692    1.069125
H      -1.382321   -0.291938    1.633742
H      -1.499669   -1.559768    0.335048
H       1.094976   -0.821206    1.937617
H       2.953064   -2.260171   -0.780102
H       1.185564   -3.780598    0.615736
H      -0.245097   -3.381778   -0.372253
H       1.464813   -4.686123   -1.464629
H      -0.170448   -1.148263   -1.885631
H       1.372962   -0.262056   -1.735120
