27

C      -0.164804    1.541599    0.216981
C      -0.020835    0.039861   -0.006673
C       0.905793   -0.608147    1.027248
O      -1.335032   -0.502829    0.043651
C      -1.489572   -1.786181   -0.525738
C      -2.980155   -2.164203   -0.549080
C      -3.760479   -1.142738   -1.394957
C      -3.105989   -3.563488   -1.174802
C      -3.528848   -2.184004    0.888881
H       0.808852    2.037514    0.161967
H      -0.823893    1.978823   -0.537647
H      -0.597269    1.737175    1.203523
H       0.394590   -0.134225   -1.014371
H       1.904350   -0.162087    0.978027
H       0.508965   -0.457368    2.036525
H       1.014882   -1.683153    0.858551
H      -1.087113   -1.792364   -1.553890
H      -0.931368   -2.544280    0.047514
H      -3.403102   -1.136401   -2.431206
H      -4.828171   -1.386383   -1.412183
H      -3.642129   -0.134418   -0.991527
H      -2.553819   -4.312761   -0.596379
H      -4.154566   -3.877387   -1.208584
H      -2.721550   -3.579250   -2.200962
H      -3.402538   -1.209189    1.365915
H      -4.594402   -2.437598    0.894963
H      -3.005513   -2.928562    1.499876
