20

C      -0.028182    1.517968   -0.098478
C      -0.036785    0.026504    0.121115
O       1.207312   -0.674519   -0.051567
C       0.611106   -0.638585    1.256322
C       1.373944    0.056637    2.385800
C       1.923483   -1.096570    3.267755
C       0.968289   -2.252616    3.020473
N      -0.451935   -1.856920    3.133089
C       0.179706   -1.973412    1.794799
H       0.821844    1.990997    0.397621
H       0.028387    1.746092   -1.168095
H      -0.950719    1.962544    0.290572
H      -0.886476   -0.490283   -0.332023
H       2.165327    0.696059    1.991935
H       0.683980    0.676873    2.963647
H       2.927393   -1.389293    2.940393
H       1.983977   -0.817357    4.323772
H       1.253995   -3.263092    3.294145
H      -1.015622   -2.687532    3.297384
H      -0.142221   -2.744391    1.103428
