23

C      -0.188155    1.501085    0.134456
O      -0.155173    0.094750    0.003499
C      -1.440488   -0.480520   -0.110648
C      -1.303907   -1.966443   -0.295669
C      -1.125527   -2.860599    0.902898
C      -2.425701   -2.875881    0.138885
C       1.214599    2.016565    0.299993
C       2.076436    2.254882   -0.911762
C       1.543658    3.425739   -0.124588
H      -0.655280    1.960897   -0.755191
H      -0.808399    1.786147    1.002878
H      -2.040462   -0.267536    0.792554
H      -1.980810   -0.033994   -0.964340
H      -0.766927   -2.250724   -1.195828
H      -0.463147   -3.714099    0.812901
H      -1.116404   -2.392759    1.881759
H      -3.294693   -2.424069    0.606614
H      -2.655498   -3.736770   -0.478779
H       1.718808    1.644482    1.186996
H       3.133565    2.024377   -0.843538
H       1.640557    2.056022   -1.885206
H       0.753021    4.020201   -0.571305
H       2.232455    3.997263    0.487264
