15

O      -0.599094    0.241621    0.103287
C      -0.247625    1.369293   -0.113614
C       1.170734    1.867595    0.027515
C       1.458482    2.802297    1.282152
C       2.417004    1.697051    1.703621
C       3.330018    0.996451    2.447749
N       3.586142   -0.197854    1.799384
C       2.854430   -0.228577    0.700988
N       2.133247    0.923100    0.614505
H      -0.960852    2.158793   -0.443107
H       1.498432    2.304134   -0.923668
H       1.901142    3.767575    1.028240
H       0.594523    2.960612    1.932805
H       3.815900    1.244361    3.377498
H       2.816814   -1.029577   -0.019080
