17

C       0.056870   -1.107250    0.002906
C       0.024659    0.095367   -0.012484
C      -0.036289    1.523902    0.000842
C      -1.238637    2.216001    0.661531
O      -1.398761    3.452990   -0.033824
C      -0.181095    3.698333   -0.714002
C       1.036235    3.778522    0.268218
C       1.291776    2.300026   -0.026923
C       0.353747    2.332571   -1.216284
H       0.088786   -2.168351    0.009098
H      -2.150831    1.622604    0.545837
H      -1.070545    2.391431    1.732320
H      -0.330863    4.518094   -1.414444
H       1.837285    4.403523   -0.135899
H       0.814790    4.088369    1.294199
H       2.225556    1.762404    0.080687
H       0.436637    1.939665   -2.219698
