17

C       0.095972    1.377518    0.132136
N      -0.024194   -0.018170   -0.249112
C      -1.250243   -0.648337   -0.087045
N      -1.307150   -1.963014    0.114371
N      -2.640996   -2.229148    0.156583
C      -3.417516   -1.131626    0.003997
C      -4.910378   -1.185080    0.031793
C      -2.545815   -0.071166   -0.157384
H       1.129883    1.698146   -0.017844
H      -0.534269    1.998626   -0.513009
H      -0.185554    1.582337    1.177690
H       0.731910   -0.601909    0.080589
H      -2.938534   -3.177706    0.302682
H      -5.291031   -1.489482    1.014001
H      -5.324629   -0.200365   -0.193762
H      -5.305880   -1.890807   -0.707631
H      -2.813327    0.961169   -0.310512
