18

C      -0.098296    1.492618    0.006551
N      -0.076508    0.036731   -0.011227
C       0.041234   -0.651656   -1.188241
C       0.157587   -2.000791   -1.222993
C       0.174591   -2.803544   -0.006777
O       0.278222   -4.029768    0.004119
C       0.050461   -2.016004    1.231054
C       0.049115   -2.765775    2.529243
C      -0.061952   -0.665986    1.171685
H       0.899271    1.910583    0.186749
H      -0.464829    1.862517   -0.952573
H      -0.772698    1.844322    0.791123
H       0.030234   -0.040905   -2.083929
H       0.236156   -2.514147   -2.173519
H      -0.770910   -3.491527    2.549372
H       0.969156   -3.350731    2.631573
H      -0.046144   -2.097256    3.389548
H      -0.152864   -0.055388    2.064011
