16

C       0.460820    1.444247   -0.035989
C       0.159120   -0.016722   -0.053865
C       0.006350   -0.941111   -1.068300
C       0.089900   -0.782612   -2.562681
C       1.274171   -0.064515   -3.029795
C       2.241239    0.534408   -3.418309
N      -0.285542   -2.154913   -0.516993
N      -0.324699   -2.045716    0.778378
N      -0.058115   -0.757003    1.062774
H       1.149998    1.701283    0.775205
H       0.925631    1.738124   -0.978780
H      -0.447409    2.043804    0.096730
H       0.072425   -1.790080   -2.993007
H      -0.807386   -0.275740   -2.943995
H       3.102430    1.047419   -3.768613
H      -0.027118   -0.462456    2.026373
