17

C       0.986682    0.072336    0.421239
C      -0.349633    0.382021   -0.198814
O      -0.679371    1.512287   -0.504463
C      -1.352708   -0.743807   -0.467511
O      -2.430081   -0.237086   -1.194834
C      -0.859596   -2.120885   -1.059957
C      -1.435809   -2.817700    0.179353
O      -0.763157   -2.280020    1.328667
C      -1.855924   -1.544593    0.779768
H       1.634303   -0.385961   -0.336281
H       1.452037    0.996160    0.767356
H       0.884636   -0.658231    1.226343
H      -2.280630    0.725243   -1.212480
H      -1.419845   -2.319326   -1.974922
H       0.209750   -2.266722   -1.227545
H      -1.848103   -3.814279    0.277342
H      -2.685597   -1.281545    1.425744
