12

C       0.001551    1.463298    0.040149
N       0.000760    0.015087   -0.067812
C       0.060220   -0.759765   -1.167091
C       0.025691   -2.049403   -0.674973
N      -0.051442   -1.989757    0.692165
N      -0.066526   -0.746465    1.051172
C       0.061184   -3.267468   -1.400200
N       0.091530   -4.247958   -2.013829
H       0.923307    1.876586   -0.376452
H      -0.858981    1.885431   -0.484482
H      -0.061503    1.704116    1.100847
H       0.119230   -0.367234   -2.167834
