18

C       0.287116    1.027739    0.177514
N      -0.401522   -0.005089   -0.565700
C      -1.361389   -0.785979   -0.009576
O      -1.776598   -0.706988    1.127743
O      -1.805883   -1.685996   -0.930466
C      -2.835756   -2.572905   -0.471214
C      -2.272811   -3.734785    0.302335
C      -2.922547   -5.050288    0.260265
O      -1.719191   -4.807324   -0.465123
H       1.358801    0.814820    0.265267
H       0.163072    2.008662   -0.294642
H      -0.148894    1.059357    1.176551
H      -0.145751   -0.201465   -1.518755
H      -3.542529   -2.016696    0.150789
H      -3.329754   -2.930918   -1.377228
H      -1.698378   -3.464333    1.186601
H      -2.835063   -5.718927    1.115083
H      -3.815196   -5.193513   -0.348443
