20

C       0.028958    1.514259    0.319072
C       0.113034    0.017780    0.083449
C       0.880823   -0.419179   -1.183840
C       1.565896   -1.743351   -0.764184
C       1.193465   -1.882833    0.732428
C       2.338460   -2.386045    1.617597
C       1.943947   -2.577203    3.011977
N       1.632462   -2.746214    4.111469
O       0.831366   -0.584139    1.159700
H       1.032480    1.948368    0.367875
H      -0.520903    1.997160   -0.494502
H      -0.486632    1.729495    1.258703
H      -0.904046   -0.409586    0.054837
H       0.215431   -0.538622   -2.042135
H       1.626309    0.337007   -1.446633
H       1.219488   -2.604284   -1.340833
H       2.651152   -1.681531   -0.888985
H       0.333157   -2.563400    0.839690
H       2.711032   -3.339187    1.226423
H       3.162175   -1.665099    1.574158
