23

C      -0.046152    1.432981   -0.074734
O      -0.045681    0.044415    0.154161
C      -1.312440   -0.591915    0.005378
C      -1.708112   -0.739990   -1.466245
C      -1.207346   -1.948571    0.701842
C      -0.870743   -1.832995    2.186788
C      -0.736850   -3.174382    2.892624
C      -0.366262   -3.121567    4.365889
O      -0.913239   -4.225234    2.318511
H       0.952464    1.801062    0.175205
H      -0.257037    1.692599   -1.122252
H      -0.782415    1.950275    0.561141
H      -2.075542    0.019135    0.521175
H      -1.794598    0.230091   -1.963733
H      -0.960970   -1.335144   -2.000724
H      -2.676553   -1.242734   -1.551772
H      -2.149104   -2.491902    0.575409
H      -0.439091   -2.546445    0.199779
H       0.060764   -1.269616    2.320134
H      -1.635442   -1.248705    2.720240
H      -1.094052   -2.523019    4.925096
H      -0.327819   -4.131663    4.775389
H       0.607787   -2.635942    4.494195
