19

C       0.777727    1.511422   -0.078028
C       0.045724    0.174067    0.001946
C       0.568425   -0.927580   -0.972506
C       1.267028   -1.647779    0.213396
O       1.000107   -3.020489    0.439259
C       2.766536   -1.415203    0.313592
O       3.405055   -0.638073   -0.347949
C       0.446264   -0.742196    1.190189
O       1.104955   -0.098085    2.251198
H       1.861413    1.377795   -0.102701
H       0.482647    2.042167   -0.989340
H       0.531084    2.141838    0.780808
H      -1.032618    0.344421   -0.054065
H      -0.221891   -1.547243   -1.400929
H       1.245182   -0.582318   -1.756591
H       1.344607   -3.528630   -0.303893
H       3.249380   -2.078100    1.066498
H      -0.405872   -1.339635    1.539823
H       1.150335   -0.701185    2.999571
