13

O       0.248272    1.582175    0.005713
C       0.074340    0.209694    0.117723
C       0.563495   -0.507682   -1.145606
O       1.007160    0.120801   -2.071737
C       0.777370   -0.383962    1.312008
N       1.664074    0.254135    2.027198
O       2.031686   -0.695487    2.993061
C       1.321909   -1.790154    2.732336
N       0.527070   -1.681100    1.715794
H       0.691706    1.724018   -0.846559
H      -0.993726   -0.053236    0.222649
H       0.482247   -1.609950   -1.149229
H       1.470423   -2.642578    3.379019
