21

C      -0.030121    1.564501    0.032901
C      -0.010617    0.022657    0.028137
C      -1.447111   -0.522808    0.017553
O      -2.132657   -0.020880    1.155694
C       0.720810   -0.498174   -1.223779
O       2.115406   -0.264589   -1.145125
C       2.732782   -1.013861   -0.115589
C       1.959932   -0.987907    1.173393
C       0.723789   -0.501997    1.245038
H       0.987831    1.948522   -0.066794
H      -0.628740    1.945405   -0.803407
H      -0.464282    1.947149    0.958913
H      -1.947314   -0.207648   -0.913761
H      -1.421035   -1.623844    0.027489
H      -3.013542   -0.405023    1.171462
H       0.521300   -1.575707   -1.355195
H       0.377277    0.022819   -2.123252
H       2.888217   -2.060462   -0.440072
H       3.729253   -0.577067    0.021554
H       2.460819   -1.391233    2.050002
H       0.183389   -0.471097    2.186221
