21

C      -0.571847    1.435028   -0.000944
C      -0.002420    0.040014   -0.024172
C       1.148103   -0.316086   -0.994827
C       1.835351   -1.159622    0.119316
O       3.174539   -0.841716    0.421976
C       0.733148   -0.709976    1.145831
C       1.171531   -0.119279    2.464336
C      -0.484161   -1.648188    1.105759
O      -1.037834   -0.977560   -0.047395
H       0.220829    2.185154    0.087888
H      -1.120671    1.631047   -0.929271
H      -1.267838    1.560891    0.833807
H       0.847540   -0.835603   -1.907254
H       1.758912    0.553070   -1.267006
H       1.832000   -2.238856   -0.059521
H       3.270775    0.116200    0.419240
H       1.936695    0.653101    2.335419
H       0.327204    0.331459    2.996332
H       1.603965   -0.891488    3.110766
H      -0.283766   -2.711352    0.916790
H      -1.150429   -1.561982    1.975255
