23

C      -0.099999    1.450277   -0.017466
O      -0.001183    0.047833    0.001402
C      -1.256584   -0.588648    0.020747
C      -1.096919   -2.072987    0.049589
C       0.041189   -2.766497    0.047411
C      -0.187215   -4.262489    0.036576
C       0.718289   -5.050408    0.989837
C      -1.699278   -4.368708    0.374141
C      -2.305134   -2.987326    0.028562
H       0.916840    1.850122   -0.027950
H      -0.633129    1.812076   -0.911519
H      -0.624556    1.836522    0.871418
H      -1.843895   -0.258331    0.899484
H      -1.854702   -0.293139   -0.863304
H       1.028165   -2.320322    0.020759
H      -0.007729   -4.642396   -0.982141
H       0.595803   -4.701064    2.021137
H       0.482285   -6.119946    0.965070
H       1.773915   -4.936448    0.720880
H      -2.194136   -5.194198   -0.144913
H      -1.807101   -4.552393    1.449352
H      -3.088359   -2.680871    0.733063
H      -2.772627   -2.982811   -0.967202
