15

C      -0.060868    1.446384    0.009278
O      -0.012886    0.017555    0.005455
C      -1.187460   -0.613592    0.012477
C      -1.345043   -1.999797    0.010306
N      -2.724048   -2.169414    0.019935
C      -3.288716   -0.952217    0.026875
N      -2.385748    0.022834    0.022684
C      -0.446466   -3.119329    0.001139
O      -0.824103   -4.280633    0.001168
H       0.979067    1.773869    0.002295
H      -0.583534    1.821710   -0.875062
H      -0.570216    1.817393    0.903164
H      -3.163702   -3.076607    0.020993
H      -4.357898   -0.802025    0.034972
H       0.628654   -2.852594   -0.005995
