18

N      -0.132026   -0.660586   -1.238067
C      -0.053193    0.319282   -0.628739
C       0.088757    1.570368    0.110710
N       0.081702    1.456336    1.580833
C       1.127599    2.501112    1.697016
C       1.514171    2.247131    0.224094
C       2.758378    1.427152   -0.187433
C       2.890871    2.421058   -1.369402
N       1.936575    3.314913   -0.667853
H      -0.631152    2.298753   -0.295584
H      -0.808254    1.657638    2.022444
H       0.745910    3.523482    1.831253
H       1.887875    2.298477    2.457762
H       3.567560    1.509682    0.540527
H       2.593604    0.378817   -0.435367
H       3.873963    2.868666   -1.543234
H       2.516772    2.007171   -2.313864
H       1.219579    3.766368   -1.225446
