18

N       0.203742    1.375870    0.237500
C      -0.010992   -0.004182    0.047222
C      -1.146775   -0.761040   -0.132631
C      -0.739977   -2.127902   -0.178396
C       0.627263   -2.171967   -0.030023
N       1.057852   -0.864167    0.105379
C       1.575578   -3.306092   -0.045315
C       2.141782   -3.840802    1.229144
N       1.150214   -4.617750    0.469242
H       0.618557    1.818498   -0.577989
H      -0.671830    1.846830    0.429149
H      -2.150177   -0.377480   -0.238742
H      -1.378132   -2.982671   -0.346455
H       1.991071   -0.581402    0.352221
H       2.202291   -3.392076   -0.933400
H       3.142477   -4.264007    1.241043
H       1.830139   -3.366055    2.155374
H       0.240358   -4.509472    0.912109
