14

C       0.024583    1.518999    0.108556
C       0.047992    0.030028    0.001263
C      -0.037357   -0.763798   -1.136343
N       0.033414   -2.065756   -0.672750
C       0.153394   -2.006039    0.667663
N       0.166032   -0.760063    1.112350
C      -0.171069   -0.497848   -2.549298
O      -0.228005   -1.375287   -3.392567
H       0.942455    1.883135    0.581453
H      -0.072615    1.996577   -0.868932
H      -0.810950    1.844470    0.736815
H      -0.003387   -2.871941   -1.276968
H       0.228885   -2.888946    1.285412
H      -0.219747    0.574695   -2.825840
