19

C      -0.121450    1.506474   -0.007290
C       0.154441    0.029877   -0.000340
C       0.468784   -0.728168   -1.289907
N       1.216113   -1.934721   -0.916416
C       1.425329   -1.906085    0.346539
N       2.211056   -2.818197    1.012696
C       0.804859   -0.739340    1.081387
C       1.327858   -0.238599    2.396257
O      -0.630476   -0.771958    0.903253
H       0.706844    2.054160   -0.468326
H      -1.027764    1.721436   -0.584134
H      -0.274286    1.885624    1.006010
H      -0.448776   -1.002445   -1.824475
H       1.068038   -0.110214   -1.972179
H       2.442035   -3.634229    0.462341
H       1.941303   -3.034155    1.960768
H       2.405368   -0.056086    2.341244
H       0.826156    0.687137    2.686827
H       1.150558   -0.970522    3.193170
