17

C      -0.025999    1.374913    0.033334
O       0.020300   -0.057305   -0.027866
C       0.630463   -0.555522   -1.098666
N       1.168148    0.094864   -2.057773
C       1.689379   -0.928477   -2.965100
C       1.346683   -2.286270   -2.339251
O       1.572647   -3.407442   -2.725285
N       0.679172   -1.945387   -1.165523
C       0.146158   -2.895419   -0.212563
H       0.985430    1.788338    0.046562
H      -0.560017    1.775911   -0.831576
H      -0.552879    1.611823    0.957393
H       1.240737   -0.849597   -3.961948
H       2.773795   -0.837215   -3.095146
H       0.375136   -3.889746   -0.600912
H       0.609267   -2.770474    0.770370
H      -0.936780   -2.783759   -0.107413
