15

C       0.863518   -0.246967    1.453221
C       0.356404    0.446278    0.612581
C      -0.262512    1.279465   -0.424654
N       0.603392    2.232188   -1.123151
C       1.154722    3.319411   -0.308745
C       2.414490    3.025018    0.391287
C       3.463271    2.780579    0.921856
C       1.338176    4.514232   -1.165419
N       1.477170    5.447411   -1.830872
H       1.316396   -0.852001    2.199533
H      -0.703500    0.631769   -1.190963
H      -1.098419    1.842980    0.008394
H       1.354001    1.752152   -1.607260
H       0.390526    3.583872    0.434535
H       4.384128    2.558558    1.403046
