23

C      -0.150481    1.588451    0.114780
C       0.057531    0.079882   -0.061284
C       0.716193   -0.567367    1.150789
C      -0.067445   -0.645012    2.489039
C       0.589559   -2.035744    2.751382
C      -0.197349   -3.079462    3.373795
C      -0.864027   -3.944581    3.879186
C       0.923531   -2.118743    1.213437
C      -0.049646   -2.962642    0.397147
H       0.803136    2.103688    0.275814
H      -0.623430    2.030553   -0.767531
H      -0.790846    1.802588    0.977275
H      -0.909035   -0.399387   -0.258081
H       0.675746   -0.101448   -0.950745
H       1.682528   -0.079130    1.330450
H       0.102290    0.130262    3.239233
H      -1.144204   -0.744842    2.325298
H       1.520493   -1.898821    3.312287
H      -1.448971   -4.706429    4.331393
H       1.946054   -2.448218    1.005438
H      -1.093132   -2.692827    0.586922
H       0.138966   -2.848191   -0.675183
H       0.060207   -4.021377    0.650212
