22

C       1.405477   -3.834528    1.419205
C       0.810318   -2.511858    0.986405
N       0.239282   -1.528646    1.892657
C       0.213724   -1.751043    3.331106
C       1.497482   -1.177441    1.213299
C       2.829171   -1.092444    1.935153
C       1.349565   -0.132119    0.123295
C      -0.049347    0.239740   -0.328610
O       2.332642    0.390245   -0.358239
H       2.005140   -3.773265    2.327658
H       0.607232   -4.564401    1.594485
H       2.044369   -4.230496    0.623178
H       0.236055   -2.609386    0.064181
H       1.076060   -2.288379    3.746967
H       0.147449   -0.781446    3.834224
H      -0.689467   -2.318088    3.578010
H       3.632045   -1.053543    1.196741
H       2.887141   -0.169163    2.521409
H       3.010273   -1.930702    2.607325
H      -0.600751    0.680472    0.507279
H       0.024675    0.951047   -1.151873
H      -0.625165   -0.635899   -0.642081
