20

C       0.062199    1.378966    0.114137
O       0.007658   -0.023618    0.021816
C       0.642892   -0.523784   -1.133087
C       0.504159   -2.049454   -1.137738
C       1.170136   -2.695478   -2.310022
C       0.660477   -3.159923   -3.503973
C       1.744729   -3.648631   -4.285470
C       2.891363   -3.470406   -3.549192
N       2.533183   -2.889921   -2.357521
H       1.100197    1.746735    0.157371
H      -0.435745    1.865805   -0.739604
H      -0.452274    1.668128    1.033932
H       0.188868   -0.103072   -2.045540
H       1.708676   -0.234438   -1.143939
H       0.908926   -2.432967   -0.192415
H      -0.560688   -2.299733   -1.144428
H      -0.383315   -3.150099   -3.780537
H       1.687661   -4.085719   -5.270496
H       3.920476   -3.710070   -3.763403
H       3.168728   -2.664140   -1.612060
