16

N       0.045920    1.560179    0.161781
C       0.041466    0.131166   -0.072790
C      -1.373243   -0.572936    0.075388
N      -1.213446   -1.022237   -1.323640
C       0.023754   -0.472670   -1.484895
N       0.632911   -0.845205   -2.579247
C      -0.291131   -1.705444   -3.168753
C      -1.422332   -1.856425   -2.382539
O      -2.569077   -2.566068   -2.498748
H       0.996350    1.914889    0.125310
H      -0.466093    2.037016   -0.575528
H       0.790552   -0.324919    0.580982
H      -1.416129   -1.390299    0.799033
H      -2.210821    0.111908    0.225413
H      -0.104366   -2.156415   -4.132478
H      -2.535098   -3.064279   -3.321624
