19

C      -0.126677    1.538124   -0.110852
C       0.039151    0.048085    0.084767
N       1.248066   -0.734972   -0.274981
C       2.437542    0.084773    0.125245
C       2.028506    0.056052    1.629115
C       1.923929    1.289273    2.396043
N       1.844606    2.274333    2.997155
C       0.746637   -0.668170    1.170726
C       0.184856   -1.845123    1.911287
H       0.660500    2.141430    0.341687
H      -0.170123    1.772187   -1.180211
H      -1.072220    1.858026    0.338076
H      -0.834188   -0.506596   -0.255912
H       3.357451   -0.466965   -0.070458
H       2.501875    1.067395   -0.346871
H       2.671827   -0.634210    2.181235
H      -0.314280   -1.518647    2.831148
H      -0.548573   -2.373456    1.296317
H       0.971806   -2.555603    2.186976
