19

C      -0.073513    0.728252   -2.226657
C       0.014496   -0.344560   -1.160836
C       1.313289   -0.658568   -0.394831
C       2.546347    0.128172   -0.611907
O       3.660624   -0.336115   -0.577256
C       0.112537   -0.022982    0.283633
C      -0.002381    1.331264    0.986850
O      -0.812088    0.739832    2.024381
C      -0.690221   -0.581150    1.454418
H       0.430111    1.652709   -1.932660
H       0.372514    0.389769   -3.166998
H      -1.121833    0.976303   -2.423458
H      -0.553264   -1.243020   -1.393887
H       1.504959   -1.704216   -0.172650
H       2.391138    1.212999   -0.808607
H       0.929186    1.751068    1.386899
H      -0.542368    2.113925    0.438773
H      -1.666569   -1.015962    1.203979
H      -0.147418   -1.266775    2.118121
