25

C       0.027816    1.588368   -0.178513
C       0.008129    0.064815   -0.027547
C      -1.408991   -0.524969   -0.044271
C      -1.439837   -2.033717    0.104632
C      -0.928728   -2.890669   -1.093180
C      -2.253763   -3.711469   -1.085142
C      -2.771217   -2.882905    0.118324
C      -2.392436   -3.452289    1.509330
C      -1.066900   -2.632385    1.494925
H       1.050169    1.979367   -0.163039
H      -0.433047    1.898747   -1.123044
H      -0.526606    2.073910    0.632494
H       0.599290   -0.390112   -0.832826
H       0.506385   -0.216291    0.909270
H      -2.000231   -0.068180    0.762755
H      -1.907126   -0.242399   -0.983167
H      -0.786284   -2.310300   -2.009732
H      -0.010910   -3.456726   -0.907989
H      -2.846286   -3.581510   -1.994308
H      -2.153045   -4.785461   -0.900739
H      -3.761689   -2.433265    0.020452
H      -3.076062   -3.151535    2.307303
H      -2.284406   -4.540453    1.552197
H      -0.140826   -3.214385    1.522620
H      -1.015472   -1.881297    2.288905
