17

C      -0.090594    1.346998    0.227429
C       1.398756    1.509295   -0.210284
C       2.369461    0.283526   -0.215395
C       2.459421   -1.078012    0.456998
O       1.905018   -1.410239    1.726106
C       1.259182   -1.936213    0.531991
C       0.001517   -1.157502    0.355496
C       0.057209   -0.039881   -0.377283
C       1.262439    0.391240   -1.215319
H      -0.362184    1.403808    1.284923
H      -0.678652    2.064063   -0.356629
H       1.856623    2.480533   -0.373761
H       3.344672    0.632137   -0.552586
H       3.423609   -1.555487    0.276995
H       1.329599   -3.015827    0.424851
H      -0.717142   -1.229683    1.169829
H       1.347615    0.395051   -2.294371
