19

C       0.015592    1.524590   -0.182019
C      -0.011016    0.006782    0.057886
C      -1.395107   -0.563812    0.026766
C      -1.928586   -1.478996   -0.845289
N      -3.235445   -1.658367   -0.442520
C      -3.438634   -0.849093    0.629776
C      -4.750306   -0.815174    1.347983
O      -5.728155   -1.384188    0.483697
N      -2.355009   -0.175992    0.943322
H       1.034785    1.917143   -0.106907
H      -0.372995    1.770733   -1.175590
H      -0.607527    2.035439    0.556882
H       0.604388   -0.503133   -0.692196
H       0.444100   -0.207109    1.033356
H      -1.515023   -2.000035   -1.692789
H      -3.948614   -2.227309   -0.866770
H      -4.677228   -1.384033    2.288344
H      -4.986073    0.224590    1.614163
H      -6.529914   -1.532487    0.992032
