17

O       0.135646    1.348956   -0.099512
C      -0.117045   -0.021374   -0.022776
C      -0.466532   -0.783094    1.224905
C      -1.574459   -0.079720    2.013445
O      -1.581528    1.396047    2.008462
C      -2.628097    1.418867    0.985582
C      -2.541178   -0.110344    0.824100
C      -1.432205   -0.731351   -0.045716
O      -1.765693   -1.700929   -0.967672
H      -0.178708    1.725515    0.736790
H       0.612898   -0.565337   -0.625518
H       0.177841   -1.556071    1.628836
H      -1.809489   -0.481289    3.000070
H      -3.572136    1.765526    1.419701
H      -2.354207    2.041043    0.130186
H      -3.452176   -0.705420    0.843620
H      -1.267973   -1.547065   -1.777127
