23

C       0.001317    1.583660   -0.062887
C      -0.013196    0.069844    0.173464
C      -1.396155   -0.548792   -0.007920
C      -2.027746   -0.669307   -1.440913
C      -2.221414   -2.173801   -1.209178
C      -0.891834   -2.821657   -0.945746
C      -1.565234   -2.068700    0.171519
C      -1.938704   -2.721994    1.462425
O      -0.797753   -2.702307    2.318621
H       1.004636    1.999474    0.072996
H      -0.325688    1.832141   -1.078849
H      -0.669502    2.099711    0.633576
H       0.701073   -0.411578   -0.506090
H       0.332930   -0.156784    1.189207
H      -2.103799   -0.032061    0.652307
H      -2.960887   -0.111387   -1.543677
H      -1.374301   -0.408976   -2.281481
H      -3.091501   -2.750251   -1.501709
H      -0.909209   -3.901653   -0.835929
H       0.008763   -2.441731   -1.421070
H      -2.779261   -2.179246    1.925828
H      -2.278623   -3.754075    1.274613
H      -1.072777   -3.007879    3.188479
