10

N      -0.087073    1.286432   -0.279218
C      -0.007110    0.087159    0.089458
O      -1.189588   -0.548536    0.432350
C      -1.205980   -1.840309    0.841218
O      -2.209727   -2.409285    1.141572
N       0.054454   -2.419958    0.872382
N       1.228658   -1.824324    0.544123
N       1.214767   -0.629441    0.169215
H       0.848081    1.628224   -0.499084
H       0.131070   -3.381873    1.166654
