19

C      -0.020417    1.580677    0.079274
C      -0.039870    0.079120   -0.021067
C      -0.037960   -0.554532   -1.196306
C      -0.036708   -2.058156   -1.372740
O       0.833083   -2.450360   -2.405247
C       0.352758   -2.721231   -0.056777
O       1.204841   -3.582790   -0.036188
C      -0.346841   -2.170340    1.159505
C      -0.029511   -0.663650    1.297704
H       0.847002    1.924988    0.657061
H       0.019311    2.050760   -0.906155
H      -0.910127    1.954005    0.602462
H      -0.020869    0.007892   -2.126326
H      -1.063833   -2.395449   -1.612033
H       1.400860   -3.130756   -2.008560
H      -1.427678   -2.293754    1.017795
H      -0.046203   -2.732856    2.045876
H       0.957251   -0.538558    1.765704
H      -0.742057   -0.202836    1.992987
