17

O      -0.011202    1.436422    0.110635
C       0.028467    0.031725    0.054839
C      -1.336118   -0.621003   -0.194420
C      -1.431556   -0.653521   -1.698999
O      -0.235932   -0.096232   -2.243505
C       0.691064   -0.524618   -1.228381
C       0.425454   -2.048346   -1.136829
O       1.119505   -2.709580   -0.098470
C      -1.085697   -1.922890   -0.970675
H      -0.279665    1.731146   -0.769431
H       0.527806   -0.307401    0.965228
H      -2.188431   -0.464657    0.451974
H      -2.319981   -0.482038   -2.288991
H       1.697465   -0.188195   -1.464062
H       0.701583   -2.550789   -2.068647
H       0.635840   -2.575744    0.722577
H      -1.748245   -2.777222   -0.930021
