18

O       0.001329    0.061540    0.606629
C      -0.046809    1.209414    0.218144
C      -1.360756    1.935021    0.002603
C      -1.662429    2.207245   -1.482701
O      -0.902951    3.261110   -2.037339
C       0.400536    2.940621   -2.452061
C       1.430024    2.735694   -1.349363
N       1.239085    3.410246   -0.077422
C       1.229300    1.931145   -0.097174
H      -2.149254    1.303810    0.421584
H      -1.343642    2.897873    0.522126
H      -1.538250    1.285623   -2.074194
H      -2.706878    2.520696   -1.571928
H       0.401005    2.047207   -3.100344
H       0.728116    3.788777   -3.064354
H       2.441701    2.675511   -1.753231
H       2.117784    3.747540    0.304885
H       2.100533    1.395183    0.271541
