19

O      -0.363170    0.360586   -0.782639
C      -0.166909    1.389288   -0.203263
C      -1.085350    2.397128    0.519261
C       0.175305    3.237697    0.872456
C       1.098866    2.180074    0.146305
C       1.462631    3.254291   -0.932288
C       0.579509    4.269708   -0.186874
C      -0.277798    5.351646   -0.776281
C       0.923769    5.707138    0.069234
H      -1.855152    2.876893   -0.091870
H      -1.568892    1.935803    1.387327
H       0.302367    3.510817    1.920010
H       1.921635    1.635033    0.609315
H       2.525975    3.507988   -0.931057
H       1.168832    3.003835   -1.955780
H      -0.219878    5.522983   -1.846576
H      -1.264976    5.511225   -0.353125
H       0.748043    6.104858    1.063993
H       1.797460    6.118747   -0.426815
