17

O       0.163323    1.530886   -0.086184
C       0.095904    0.145666    0.189059
C      -1.340995   -0.427432    0.183934
C      -1.328722   -1.984676    0.193999
N      -2.412750   -2.264442    1.141180
C      -2.636359   -1.092348    1.835238
N      -2.104604   -0.021819    1.379777
C      -2.059499    0.119715   -1.055161
O      -1.896226   -0.315485   -2.167361
H       0.140791    1.650684   -1.040687
H       0.702173   -0.437096   -0.519692
H       0.507441    0.001762    1.192943
H      -1.521451   -2.398609   -0.798119
H      -0.365089   -2.370920    0.556508
H      -2.427154   -3.143649    1.635415
H      -3.281674   -1.111619    2.709421
H      -2.737584    0.971718   -0.845541
