19

C       0.109605    1.518729   -0.123421
C       0.000481    0.013810    0.122261
O       0.586017   -0.361909    1.360283
C      -1.459217   -0.478017    0.069035
C      -1.578223   -2.022336    0.175479
O      -2.512581   -2.233032    1.259782
C      -2.723715   -1.004941    1.791976
N      -3.469893   -1.018126    2.935107
N      -2.206457    0.022297    1.232528
H       1.149576    1.839091   -0.019683
H      -0.236731    1.780395   -1.129317
H      -0.502819    2.065971    0.599494
H       0.574989   -0.521647   -0.645114
H      -0.011022   -0.020313    2.040114
H      -1.920389   -0.105926   -0.855825
H      -1.982754   -2.502015   -0.718265
H      -0.627853   -2.487575    0.452230
H      -4.058238   -1.825652    3.064308
H      -3.886390   -0.133485    3.177041
