18

C       0.097209    1.423803    0.325007
N      -0.002368    0.043543   -0.154666
C      -1.288488   -0.526144   -0.114330
C      -1.878416   -1.042926    1.178578
C      -1.749979   -1.971744    0.011401
N      -2.920254   -1.753109   -0.871663
C      -2.434608   -0.361101   -1.162885
C      -3.423085    0.697590   -0.960365
N      -4.176515    1.556641   -0.783126
H       1.144485    1.737408    0.298962
H      -0.496733    2.147729   -0.253856
H      -0.243919    1.465612    1.363477
H       0.423620   -0.055123   -1.069381
H      -1.131945   -1.170643    1.954835
H      -2.866082   -0.737895    1.511532
H      -1.196427   -2.901987    0.021659
H      -2.861083   -2.316687   -1.713823
H      -2.015016   -0.266569   -2.170824
