18

C      -0.306485    1.418113    0.046293
C       0.162583   -0.034984   -0.102943
C       0.783172   -0.582769    1.164630
O       1.926625    0.091892    1.618799
C       0.007195   -1.220055    2.278446
O      -1.134058   -1.945260    1.757686
C      -0.273066   -2.810263    1.068409
N      -0.528164   -3.845801    0.412697
C       0.962228   -2.076421    1.464919
H       0.527348    2.094142    0.267808
H      -0.765561    1.772834   -0.880480
H      -1.049353    1.515300    0.845277
H      -0.683222   -0.664398   -0.389752
H       0.906634   -0.108606   -0.904181
H       1.667289    0.989443    1.854682
H       0.002442   -0.941725    3.323668
H      -1.530888   -4.039690    0.402441
H       1.932996   -2.488772    1.694765
