18

C      -0.090991    1.478069   -0.061720
C       0.058846   -0.004268    0.060549
C       0.924355   -0.853551   -0.816702
C       1.127638   -2.164585   -0.053151
C       1.830981   -1.991672    1.296057
O       0.926451   -1.200050    2.090450
C      -0.193720   -0.904483    1.277408
C      -0.387342   -2.014716    0.230171
N      -0.571007   -0.981491   -0.904425
H       0.668839    1.993736    0.536059
H       0.020187    1.795171   -1.103228
H      -1.076893    1.804369    0.285812
H       1.509800   -0.443743   -1.632247
H       1.443472   -3.015768   -0.655165
H       2.008010   -2.947153    1.806723
H       2.791270   -1.469943    1.197821
H      -1.037906   -0.625531    1.908281
H      -1.075767   -2.848858    0.338567
