17

C      -0.006172    1.568109   -0.117915
C      -0.014716    0.082129   -0.071880
C      -0.006457   -1.039057   -1.071175
C       1.243656   -1.591741   -0.416010
N       0.904770   -0.799803    0.833984
C      -0.358581   -1.519414    1.288181
C      -0.863831   -0.964406    2.541308
N      -1.292522   -0.535774    3.525072
C      -1.067468   -0.981930    0.051819
H       0.973719    1.948683   -0.424727
H      -0.750694    1.926588   -0.836213
H      -0.245419    1.991746    0.862628
H      -0.302779   -1.013461   -2.112783
H       1.352224   -2.670504   -0.257634
H       2.163575   -1.191414   -0.848482
H      -0.234718   -2.602387    1.402389
H      -2.127766   -0.917718   -0.154873
