19

C       0.032692    1.433227   -0.195460
C      -0.138985   -0.086335   -0.129370
C      -1.485552   -0.491986    0.481574
N      -1.665046   -1.931496    0.568727
C      -2.547858   -2.617494   -0.217142
O      -3.304611   -2.087772   -1.003667
C      -2.460252   -4.141340   -0.051510
O      -3.726941   -4.694821   -0.306744
H       0.998168    1.704387   -0.632285
H      -0.751296    1.892625   -0.806935
H      -0.019449    1.883617    0.802148
H      -0.064611   -0.519818   -1.133474
H       0.676228   -0.526368    0.460827
H      -1.590683   -0.050840    1.481566
H      -2.310746   -0.121965   -0.131788
H      -1.085772   -2.447864    1.210789
H      -1.700093   -4.495813   -0.767071
H      -2.095936   -4.391012    0.959604
H      -3.617890   -5.639797   -0.443961
