15

C      -0.113657    1.449588   -0.017513
C       0.021258   -0.033500    0.030116
O      -1.155412   -0.822906   -0.152606
C      -0.509146   -1.936872    0.550285
C       0.656546   -1.035801    0.983293
C       1.226286   -0.863760   -0.398332
O       0.999218   -2.002775   -1.205783
C       0.043946   -2.783592   -0.600016
O      -0.281902   -3.857864   -1.002197
H       0.855259    1.927745    0.152370
H      -0.481471    1.761357   -1.000753
H      -0.816527    1.802595    0.742744
H      -1.166426   -2.441086    1.253138
H       1.168282   -0.972285    1.933597
H       2.188229   -0.401902   -0.575162
