21

C      -1.702163   -0.480349    2.332044
C      -0.759903   -0.921969    1.241275
O      -0.387660    0.046732    0.253160
C       0.640650   -0.485983    1.097030
C       1.358852    0.475352    2.019054
C       2.201345   -0.248470    3.107374
C       3.509723    0.571327    3.247582
C       3.551512    1.366641    1.964153
C       2.396156    1.319971    1.304992
H      -1.418914    0.486199    2.752992
H      -2.718961   -0.389823    1.935400
H      -1.723635   -1.221444    3.138603
H      -1.004893   -1.897357    0.813634
H       1.316463   -1.171849    0.578032
H       0.610583    1.136441    2.474335
H       1.660294   -0.356528    4.050523
H       2.441999   -1.259334    2.758328
H       3.479387    1.242791    4.117371
H       4.390464   -0.065969    3.386238
H       4.422304    1.936777    1.658735
H       2.170146    1.838309    0.379928
