13

O      -0.071095   -0.069733    0.000059
C      -0.025499    1.142005    0.007681
N       1.127593    1.859878    0.002829
C       2.413687    1.224663   -0.012663
C       3.511295    2.264088   -0.019405
O       3.298886    3.450807   -0.011840
C       4.951623    1.707294   -0.035381
O       5.912053    2.423698   -0.041442
H      -0.922124    1.790476    0.018214
H       1.124618    2.870154    0.007320
H       2.554028    0.561484    0.855918
H       2.536311    0.568646   -0.889307
H       5.032557    0.597897   -0.040486
