17

C       0.009116    1.452369    0.018569
N       0.004976    0.004145    0.026286
C      -0.027854   -0.815353   -1.070987
N      -0.022397   -2.082733   -0.752256
C       0.016280   -2.101841    0.632767
C       0.034158   -3.297360    1.390650
C       0.049978   -4.300254    2.058113
C       0.033769   -0.812562    1.135385
C       0.074420   -0.309166    2.535348
H       0.913909    1.846352    0.491940
H      -0.021015    1.798909   -1.015917
H      -0.863257    1.851553    0.545377
H      -0.054827   -0.412911   -2.073616
H       0.063448   -5.192061    2.633511
H       0.966712    0.297525    2.733978
H      -0.800034    0.305656    2.782344
H       0.089215   -1.161747    3.217271
