17

C      -0.047617    1.450635    0.015159
N       0.002656   -0.008225   -0.003294
C      -1.178502   -0.709616   -0.005798
C      -1.219259   -2.072051   -0.039525
N      -2.421052   -2.807149   -0.140568
C       0.033321   -2.755657   -0.053718
C       1.206720   -2.072657   -0.027489
C       1.271736   -0.623870   -0.003580
O       2.304466    0.037167    0.013406
H       0.981136    1.806805    0.015832
H      -0.570496    1.827102   -0.869622
H      -0.562734    1.806091    0.913335
H      -2.078002   -0.104369    0.009666
H      -3.239735   -2.253289    0.078096
H      -2.419770   -3.632960    0.446124
H       0.032893   -3.842017   -0.090822
H       2.162947   -2.580977   -0.032507
