15

C      -0.027675    1.604500   -0.052731
C      -0.015490    0.063220    0.015634
O       0.753814   -0.350426    1.186780
C       0.182201   -0.261396    2.409315
O       0.795539   -0.501095    3.405305
C      -1.384567   -0.474081    0.043102
C      -2.512309   -0.886873    0.046789
C       0.704696   -0.491499   -1.134646
C       1.287874   -0.908792   -2.096308
H       1.001707    1.968215   -0.041285
H      -0.518552    1.933098   -0.970826
H      -0.569350    2.013760    0.803530
H      -0.880259    0.031689    2.381924
H      -3.504994   -1.266758    0.048866
H       1.805731   -1.293258   -2.940788
