23

O       0.024852   -0.052807    0.157759
C      -0.000381    1.156117    0.084036
C      -1.316716    1.923540    0.058885
C      -1.395855    3.089854   -0.939396
C      -1.344134    2.688743   -2.421674
C      -0.109111    1.891762   -2.885491
C       1.267344    2.505393   -2.529904
C       1.993565    1.844907   -1.345137
C       1.302340    1.953418    0.032370
H      -2.117602    1.196006   -0.106429
H      -1.454036    2.325017    1.074040
H      -2.332993    3.629395   -0.760316
H      -0.599058    3.810649   -0.724249
H      -2.240979    2.103586   -2.663376
H      -1.413647    3.607799   -3.018165
H      -0.159323    0.867286   -2.499473
H      -0.185330    1.791153   -3.973911
H       1.929437    2.419089   -3.398738
H       1.163399    3.583568   -2.348076
H       2.137833    0.779341   -1.560797
H       2.993760    2.284237   -1.255576
H       1.142684    3.004058    0.295482
H       1.965311    1.514588    0.784772
