14

N      -0.209077    1.165757    0.001236
C      -0.415902   -0.036692   -0.301359
O      -0.986251   -0.862946    0.620034
C      -1.003785   -2.219024    0.308187
C      -2.134438   -2.996564    0.875740
C      -2.079119   -2.768361   -0.633004
C      -3.008863   -1.873065   -1.256475
N      -3.746916   -1.153490   -1.781549
H       0.195391    1.662834   -0.789427
H      -0.197998   -0.533845   -1.254245
H      -0.023423   -2.684606    0.238838
H      -1.956816   -4.002904    1.234308
H      -2.875820   -2.426158    1.421870
H      -1.791013   -3.612716   -1.250498
