17

O       0.170530    1.383864    0.201222
C       0.073331    0.001940   -0.121132
C      -1.339344   -0.495508   -0.096766
C      -2.042642   -0.972622    1.158550
C      -1.904344   -1.916227   -0.008230
O      -2.923693   -1.638428   -0.978385
C      -2.387322   -0.302388   -1.187608
C      -1.288116   -3.195377    0.026420
C      -0.766076   -4.278880    0.059017
H      -0.196859    1.501953    1.083736
H       0.491981   -0.092078   -1.128721
H       0.691484   -0.616823    0.548025
H      -1.388548   -1.180461    1.999842
H      -3.037386   -0.616549    1.412278
H      -3.142900    0.476290   -1.038256
H      -1.954039   -0.215485   -2.190512
H      -0.308461   -5.236864    0.084770
