24

C      -0.227398    1.604063   -0.352433
C      -0.494507    0.100691   -0.395286
N       0.460549   -0.549236   -1.285925
C       1.721064   -1.005714   -0.709328
C       0.713818   -1.989850   -1.198953
C      -0.004765   -2.928539   -0.248753
C      -1.355425   -3.411707   -0.793165
C      -2.044569   -4.405677    0.131734
O      -3.274134   -4.783254   -0.468862
H       0.765880    1.812009    0.059055
H      -0.270236    2.028618   -1.359226
H      -0.966951    2.111569    0.274659
H      -0.472029   -0.301497    0.631455
H      -1.500630   -0.085067   -0.790040
H       2.622376   -0.789121   -1.277571
H       1.840366   -0.927238    0.372304
H       0.886118   -2.432582   -2.180902
H       0.648422   -3.795292   -0.076214
H      -0.141135   -2.457174    0.730969
H      -2.027989   -2.561395   -0.953174
H      -1.216475   -3.885940   -1.772438
H      -1.392225   -5.280772    0.289858
H      -2.209070   -3.942885    1.119276
H      -3.713647   -5.410075    0.112834
