18

C       0.112316    1.448405   -0.070292
N       0.147624   -0.004725   -0.051293
C       0.536272   -0.604511    0.985141
O       0.963247   -0.006045    2.155775
C       1.163027   -1.043787    3.123896
C      -0.204253   -1.701304    3.481725
C       0.092953   -2.742691    2.404122
C       1.549336   -2.330805    2.344457
C       0.675971   -2.077953    1.148963
H       0.704893    1.808565   -0.919161
H      -0.918452    1.779332   -0.244598
H       0.481693    1.924139    0.845110
H       1.794613   -0.657647    3.920334
H      -0.182209   -2.148088    4.479407
H      -1.085992   -1.061511    3.378746
H      -0.331265   -3.736210    2.328044
H       2.471412   -2.894872    2.361235
H       0.748052   -2.687925    0.259513
