16

O      -0.122571    1.411863    0.032094
C       0.004583    0.048456   -0.007109
C      -1.153880   -0.900884   -0.132553
C      -1.007446   -1.779689   -1.358664
C       0.463886   -1.577239   -1.786794
O       0.975327   -1.975362   -2.800374
C       1.137665   -0.804731   -0.653819
N       1.110009   -1.680758    0.568368
C      -0.136076   -1.055035    1.014197
H       0.597824    1.773910    0.561064
H      -2.125638   -0.521010    0.162053
H      -1.217639   -2.842657   -1.198812
H      -1.658095   -1.445325   -2.173358
H       2.111482   -0.375980   -0.890106
H       1.044680   -2.678584    0.362539
H      -0.427966   -1.048727    2.058162
