18

C       0.838420    1.368845    0.050167
N       0.032489    0.156179   -0.062009
C       0.330216   -0.683371   -1.229680
C       1.099402   -1.887158   -0.704928
N       2.203640   -1.510897    0.188707
C       0.897673   -1.907402    0.775256
C       0.026655   -0.698155    1.127459
C       0.790275   -3.129098    1.518521
N       0.706378   -4.099799    2.143295
H       1.914597    1.179357    0.177766
H       0.693858    1.978659   -0.847059
H       0.483005    1.958618    0.900703
H      -0.593048   -1.037457   -1.710121
H       0.899224   -0.116854   -1.972327
H       1.157718   -2.807101   -1.277565
H       2.858527   -2.285788    0.272288
H       0.404046   -0.155315    1.997846
H      -0.985207   -1.056522    1.361459
