18

C      -0.179473    1.542803   -0.001489
C       0.008127    0.034171   -0.011741
C       1.165155   -0.595885   -0.838157
C       2.134201   -0.238617    0.312130
C       0.863479   -0.613037    1.153060
C       0.729518   -2.101316    0.762877
O       0.954355   -2.005766   -0.658609
C       0.694919   -0.249802    2.537299
N       0.549436    0.057472    3.642901
H       0.754654    2.097564    0.114673
H      -0.643398    1.867246   -0.938582
H      -0.842944    1.838663    0.817362
H      -0.952533   -0.464260   -0.173038
H       1.353299   -0.377301   -1.887326
H       3.015490   -0.870593    0.433538
H       2.396953    0.814483    0.381987
H       1.488177   -2.736809    1.231500
H      -0.265765   -2.507347    0.970836
