19

C      -0.046399    1.457977   -0.040560
C      -0.053370   -0.032786   -0.006593
O       0.851419   -0.737492   -0.866815
C      -0.034038   -1.908120   -0.836155
C       0.544299   -2.906304    0.159544
C       0.601899   -2.083195    1.481078
C      -0.345264   -0.909077    1.227127
C      -1.105502   -1.085921   -0.072642
O      -2.461714   -1.011332   -0.299729
H       0.905227    1.852326    0.332249
H      -0.191054    1.820225   -1.063070
H      -0.850513    1.855321    0.585140
H      -0.261858   -2.268777   -1.840753
H      -0.129054   -3.767804    0.253208
H       1.524214   -3.277361   -0.152595
H       0.284161   -2.674329    2.344998
H       1.619789   -1.736490    1.681133
H      -0.841640   -0.400467    2.047420
H      -2.906090   -1.635586    0.284920
