17

O       0.089097   -0.013231   -0.097871
C       0.007540    1.185982    0.019978
C      -1.318035    1.923128    0.078577
C      -1.498974    2.954570   -1.067116
C      -0.633844    4.185426   -0.932471
C       0.699585    4.188095   -0.951176
C       1.559962    2.949248   -1.097334
C       1.314671    2.008894    0.081770
O       2.077359    1.881273    1.005386
H      -2.103298    1.162373    0.040617
H      -1.385507    2.445826    1.041260
H      -1.306863    2.452664   -2.025719
H      -2.551202    3.249899   -1.085523
H      -1.151058    5.131678   -0.798745
H       1.232799    5.123692   -0.814064
H       1.322035    2.417621   -2.028973
H       2.621259    3.203952   -1.104718
