18

C       0.708865   -0.070792   -1.277493
O       0.019621    0.036247   -0.037654
C       0.581322   -0.655348    1.023755
C      -0.396305   -0.852046    2.206333
O       0.004271   -2.238982    2.331954
C       0.565875   -2.214689    0.996266
C       1.934683   -0.067754    1.490133
N       2.513620   -0.742836    2.524620
O       2.432535    0.912335    0.973968
H       0.797380   -1.120766   -1.594425
H       0.101191    0.462110   -2.011560
H       1.701462    0.382551   -1.222731
H      -0.227231   -0.285375    3.125519
H      -1.437656   -0.752414    1.878220
H      -0.143023   -2.601520    0.253229
H       1.514581   -2.754178    0.938080
H       2.022887   -1.481559    3.004951
H       3.351060   -0.355321    2.927696
