18

C      -0.418692    1.483567   -0.215585
C       0.150348    0.090508    0.086490
C       0.891514   -0.496940   -1.082853
O       0.109525   -0.870758   -2.246402
C       0.838813   -1.886432   -1.564478
C       2.154041   -2.185327   -2.243844
O       2.854361   -0.928737   -2.287935
C       2.235440    0.014586   -1.515458
N       2.731213    1.133110   -1.203256
H       0.386332    2.181887   -0.453069
H      -1.104378    1.440119   -1.066899
H      -0.970904    1.864931    0.648086
H       0.836962    0.141297    0.938703
H      -0.658453   -0.596224    0.359242
H       0.261881   -2.669183   -1.080499
H       2.747329   -2.909864   -1.673381
H       2.031565   -2.544655   -3.269786
H       3.671958    1.232695   -1.589000
