14

N      -0.120372    1.289624   -0.012440
C       0.009091    0.028598   -0.026916
N       1.116179   -0.795354   -0.064469
C       0.798873   -2.165915   -0.029482
O       1.588111   -3.070269    0.049577
N      -0.582120   -2.234267   -0.122269
C      -1.184071   -0.927745    0.020559
C      -1.974657   -0.761976    1.319243
O      -2.207277   -1.680367    2.058553
H       0.777288    1.774020   -0.036796
H       2.074441   -0.485776   -0.059861
H      -1.028753   -3.021013    0.327198
H      -1.867290   -0.678604   -0.803629
H      -2.324304    0.272189    1.505949
