15

O      -0.021702    1.439740    0.075902
C       1.418593    1.393689   -0.012573
C       1.962582    0.846172    1.367468
O       0.821073    0.591499    2.213929
C       0.538698   -0.549167    1.375154
C      -0.005291   -0.001649   -0.004888
C       1.325986    0.059538   -0.821219
O       2.246903   -0.877537   -0.334318
C       2.059647   -0.678880    1.039997
H       1.869218    2.308657   -0.394880
H       2.754118    1.418018    1.850013
H      -0.046382   -1.326337    1.865129
H      -0.931282   -0.435699   -0.379763
H       1.297319    0.082810   -1.907415
H       2.695604   -1.324544    1.639881
