20

C      -0.025722    1.559924    0.113589
C      -0.013301    0.030295    0.048638
C      -1.420722   -0.573844    0.006275
C      -1.407143   -2.093971   -0.057769
O      -2.743319   -2.560698   -0.093692
C      -2.849806   -3.957028   -0.154069
C      -4.323979   -4.321054   -0.185231
O      -4.732028   -5.450432   -0.237711
H       0.990098    1.965671    0.142318
H      -0.532008    1.988290   -0.758331
H      -0.551948    1.913182    1.007096
H       0.549974   -0.293857   -0.836429
H       0.529222   -0.368412    0.916053
H      -1.989408   -0.265922    0.892271
H      -1.968361   -0.191783   -0.863969
H      -0.862136   -2.439128   -0.953162
H      -0.883678   -2.513992    0.818283
H      -2.363849   -4.374188   -1.053262
H      -2.382785   -4.449255    0.716751
H      -4.999425   -3.437573   -0.154841
