21

C      -0.022310    1.574150    0.074069
C      -0.294258    0.066819    0.074321
C      -1.768002   -0.241735    0.364117
N      -2.208225   -1.627362    0.403278
C      -1.384548   -2.565876    0.200303
N      -1.816923   -3.887031    0.240155
C      -0.989249   -4.975454    0.030958
C      -1.695304   -6.316052    0.126613
O       0.194431   -4.854409   -0.206805
H       1.030431    1.787606   -0.133170
H      -0.621594    2.085482   -0.687352
H      -0.268031    2.021978    1.043313
H      -0.009541   -0.356417   -0.897329
H       0.342222   -0.419608    0.824375
H      -2.046943    0.208837    1.327612
H      -2.395599    0.271383   -0.378837
H      -0.318948   -2.486296   -0.014745
H      -2.798239   -4.022978    0.435890
H      -2.141106   -6.450650    1.117806
H      -2.500778   -6.385190   -0.612110
H      -0.969684   -7.107958   -0.054069
