16

C      -0.078922    1.461898    0.031817
C      -0.031145   -0.021305   -0.032499
C      -0.007424   -0.910096   -1.028745
C       0.047818   -2.246379   -0.273548
C      -1.057049   -2.051637    0.805376
C       0.020256   -0.986187    1.193319
O       1.038433   -1.950427    0.780148
C       0.163259   -0.435031    2.525259
N       0.243825    0.030742    3.579498
H       0.792487    1.862645    0.563418
H      -0.103143    1.898410   -0.969705
H      -0.963383    1.809308    0.579723
H      -0.022029   -0.760812   -2.098095
H       0.221704   -3.180492   -0.802077
H      -2.042382   -1.700141    0.497032
H      -1.106087   -2.869894    1.526189
