18

C      -0.179139    1.534285    0.040161
C       0.021091    0.017646   -0.015957
C       0.749624   -0.443788   -1.280520
C       0.890935   -1.967494   -1.264586
C       1.344114   -2.570562    0.059268
O       1.812689   -3.673264    0.141092
O       1.128143   -1.863524    1.196107
C       0.826128   -0.458175    1.189180
H       0.781794    2.060344    0.007538
H      -0.775564    1.878426   -0.810128
H      -0.696250    1.837801    0.956353
H      -0.962887   -0.471270    0.016325
H       0.216328   -0.123394   -2.181892
H       1.740287    0.029461   -1.317200
H      -0.082450   -2.431146   -1.473941
H       1.574553   -2.336431   -2.032432
H       1.776808    0.091598    1.239728
H       0.289123   -0.278856    2.124859
