18

C      -0.073208    1.652873    0.303708
N      -0.467298    0.301572    0.645523
C       0.292616   -0.637813    0.270660
N      -0.016850   -1.957776    0.558042
C       0.789294   -3.022882    0.208635
O       1.848908   -2.907085   -0.368172
N       0.254982   -4.245982    0.658756
C       0.560555   -5.446322   -0.093620
C      -0.827635   -4.897718   -0.087663
H       0.035745    2.246630    1.218808
H       0.869270    1.712692   -0.263188
H      -0.863906    2.128022   -0.288733
H       1.226205   -0.532997   -0.290230
H      -0.847151   -2.126502    1.106792
H       1.155377   -5.317009   -0.992738
H       0.799269   -6.319508    0.505459
H      -1.602852   -5.357996    0.517818
H      -1.177159   -4.408959   -0.993590
