20

O      -0.147322    1.455241    0.107935
C       0.003070    0.046923    0.025392
C       0.763434   -0.527580    1.229586
C       0.790226   -2.061790    1.175979
N      -0.552138   -2.596185    1.034465
C      -1.341097   -2.088072   -0.081831
C      -1.399020   -0.556105   -0.053492
C      -1.079287   -3.494071    1.913042
O      -2.194754   -3.967982    1.856190
H       0.729418    1.850347    0.153044
H       0.551582   -0.224946   -0.894727
H       1.791174   -0.143545    1.250770
H       0.264858   -0.195117    2.147440
H       1.410376   -2.390049    0.327604
H       1.238706   -2.477584    2.083106
H      -0.891370   -2.429992   -1.025821
H      -2.333404   -2.533194   -0.000874
H      -1.972145   -0.221938    0.818902
H      -1.911379   -0.183087   -0.945617
H      -0.356079   -3.753283    2.712415
