17

O       0.053571    1.412336   -0.188865
C       0.034946    0.004798   -0.100540
C      -1.358973   -0.559953   -0.016419
C      -1.714924   -2.054625    0.186803
C      -3.003517   -1.541907   -0.492412
C      -3.663048   -0.630895    0.561534
C      -2.371981    0.128857    0.918846
O      -2.184872    1.040316    1.682218
O      -2.187930   -0.577663   -1.237289
H      -0.415485    1.745805    0.587217
H       0.533203   -0.382313   -0.994914
H       0.594544   -0.366045    0.775685
H      -1.124778   -2.692350   -0.473315
H      -1.766625   -2.461767    1.200457
H      -3.635429   -2.168039   -1.119675
H      -4.412377    0.034947    0.127204
H      -4.095973   -1.142251    1.426215
