27

C      -0.065712    1.514583    0.195952
C      -0.020404   -0.011019    0.067963
C       0.685472   -0.549408   -1.200728
C       0.606373   -2.084750   -1.207999
O       0.063778    0.009665   -2.375812
C      -1.245870   -0.396248   -2.698853
C       2.152203   -0.037449   -1.320377
C       3.014251   -0.296425   -0.076154
C       2.856800   -0.573319   -2.577102
H       0.926685    1.944088    0.362878
H      -0.473806    1.967430   -0.711741
H      -0.696656    1.810845    1.039704
H       0.458381   -0.451966    0.949181
H      -1.045459   -0.400556    0.075677
H      -0.413191   -2.432218   -1.017978
H       0.932044   -2.494698   -2.167134
H       1.240919   -2.506197   -0.423563
H      -1.969921   -0.193939   -1.896692
H      -1.540172    0.186823   -3.575986
H      -1.309124   -1.461997   -2.958455
H       2.059983    1.047547   -1.445549
H       3.123980   -1.367193    0.128785
H       4.021000    0.103894   -0.234433
H       2.613177    0.178078    0.823328
H       3.799748   -0.040014   -2.736449
H       3.098653   -1.637851   -2.483367
H       2.231326   -0.437395   -3.461117
