16

O       0.036815   -0.032690    0.347278
C      -0.021331    1.145796    0.071787
C      -1.335392    1.871713   -0.142248
N      -1.214131    3.288811   -0.465176
C      -0.166909    3.809190   -1.317335
C       1.225151    3.128878   -1.111168
C       1.172405    3.466235    0.350482
C      -0.219410    4.146320    0.142079
C       1.173566    2.003779   -0.082662
H      -1.885754    1.373539   -0.948572
H      -1.946451    1.768502    0.761757
H      -0.431403    4.393378   -2.190902
H       2.052536    3.212769   -1.802375
H       1.951786    3.857289    0.990023
H      -0.533614    5.049905    0.651156
H       2.115814    1.487038    0.070695
