20

C       0.105375    1.711820   -0.312238
N       0.141262    0.282409   -0.027324
C       1.290642   -0.567892   -0.260354
C       2.689374    0.034259   -0.383727
C       2.999196    0.766653    0.946301
O       3.080366    2.168515    0.782683
C       1.844709    0.367615    1.939142
O       1.332522    1.513137    2.631782
C       0.767824   -0.331297    1.127983
H       1.065540    2.232014   -0.235980
H      -0.279092    1.840916   -1.329777
H      -0.602646    2.182114    0.376163
H       1.087748   -1.488082   -0.804393
H       3.406918   -0.775159   -0.554708
H       2.785934    0.731627   -1.221584
H       3.959196    0.413737    1.348382
H       2.502040    2.538881    1.467841
H       2.227349   -0.355789    2.669734
H       1.770334    1.576731    3.485734
H       0.146077   -1.047492    1.661667
