22

C      -0.080072    1.605706    0.021238
C       0.117880    0.091861   -0.119371
C       0.686543   -0.549301    1.139561
C      -0.128390   -0.646350    2.452321
C      -1.553169   -1.223919    2.325777
C      -0.903327   -2.617165    2.242909
C      -0.301611   -2.962669    0.868712
C       0.900338   -2.075715    1.252644
N       0.443433   -2.048322    2.720441
H       0.866967    2.109064    0.244987
H      -0.481039    2.042289   -0.898573
H      -0.777725    1.841215    0.832338
H      -0.838011   -0.376304   -0.383329
H       0.795229   -0.114429   -0.958788
H       1.640816   -0.066203    1.384728
H       0.031049    0.130562    3.203233
H      -2.112436   -1.096648    3.256395
H      -2.184985   -0.897547    1.494009
H      -1.358784   -3.426345    2.817951
H      -0.010209   -4.014850    0.812559
H      -0.878136   -2.714192   -0.027360
H       1.897602   -2.459109    1.024162
