17

C      -0.011044    1.566096   -0.052458
C      -0.020932    0.071306    0.024994
C       0.472477   -1.045193   -0.851123
O       1.155565   -1.731164    0.187837
C       0.465904   -0.868456    1.167970
C      -0.767581   -1.686607    1.503371
N      -0.928336   -2.326012    2.707649
N      -1.581224   -1.765781    0.509823
C      -1.040113   -0.910554   -0.513753
H       0.989396    1.977810    0.122246
H      -0.337661    1.896548   -1.043757
H      -0.693678    2.008072    0.682488
H       0.888942   -1.102967   -1.850418
H       1.137511   -0.531572    1.958783
H      -0.084812   -2.550145    3.212001
H      -1.603223   -3.078388    2.692710
H      -1.699550   -0.617071   -1.322686
