14

N       0.027797    1.369714    0.153378
C      -0.027933   -0.002505    0.048894
C      -1.147421   -0.745196    0.015588
O      -1.093380   -2.134121   -0.025693
C       0.127657   -2.692025   -0.020674
O       0.059465   -4.024092   -0.039165
N       1.255386   -2.098678   -0.006281
C       1.275021   -0.704587    0.007550
N       2.340889    0.001978   -0.023812
H       0.948378    1.721262   -0.081302
H      -0.742474    1.896205   -0.227728
H      -2.167454   -0.392203    0.025837
H      -0.871658   -4.280505   -0.044172
H       3.157710   -0.608458   -0.059101
