16

C      -0.014650    1.521252   -0.010283
N       1.324975    2.153954   -0.085686
C       2.215484    1.383208   -0.833571
C       2.086630    0.031543   -1.119486
C       3.236853   -0.265571   -1.888720
N       4.013757    0.799214   -2.060428
N       3.365305    1.800586   -1.404949
C       0.986522   -0.695876   -0.516817
C       0.003896    0.004915    0.069354
H      -0.535417    1.954721    0.847543
H      -0.577666    1.833219   -0.903869
H       1.691178    2.378123    0.834432
H       3.531874   -1.211088   -2.321397
H       3.749764    2.730115   -1.416529
H       0.995634   -1.781055   -0.502872
H      -0.821372   -0.486188    0.574151
