19

C       0.081775    1.653473   -0.003775
C      -0.093338    0.129836    0.007172
C       0.655266   -0.513752    1.172290
C       0.739571   -2.078741    1.297972
C       0.077713   -2.944553    0.235586
N       2.196685   -1.927826    1.169120
C       2.200328   -0.560070    1.057655
O       3.083229    0.246660    0.917435
H       1.141907    1.917761   -0.044612
H      -0.422144    2.100126   -0.866104
H      -0.340280    2.104169    0.901350
H      -1.158715   -0.125792    0.072277
H       0.267905   -0.283876   -0.941379
H       0.348194   -0.049700    2.115716
H       0.445470   -2.428674    2.295437
H       0.367118   -2.635377   -0.772126
H       0.364245   -3.994138    0.362236
H      -1.012621   -2.888016    0.318175
H       2.953114   -2.594480    1.225146
