13

O       0.012882   -0.029051    0.004039
C      -0.016073    1.178957    0.007668
C       1.160022    2.013627    0.001498
C       2.204588    2.607504   -0.004436
N      -1.241795    1.872448    0.018421
C      -2.486030    1.292813    0.025753
C      -3.388885    2.318435    0.035112
C      -2.594241    3.500746    0.032678
N      -1.303248    3.233960    0.022679
H       3.118796    3.149829   -0.009944
H      -2.586644    0.220869    0.023485
H      -4.464016    2.241611    0.042633
H      -2.926857    4.528946    0.037934
