21

C      -0.016557    1.576903   -0.043381
C      -0.080067    0.043893    0.084597
C       0.658536   -0.466437    1.235204
C       1.267862   -0.863562    2.195263
C       2.006339   -1.382583    3.340544
C       2.215650   -2.897158    3.285477
C       2.846450   -3.571718    4.523729
C       1.555922   -4.414298    4.536965
O       0.988073   -3.639575    3.460820
H       1.017408    1.915366   -0.153448
H      -0.584051    1.911684   -0.917007
H      -0.435103    2.058195    0.844746
H      -1.128318   -0.273995    0.155056
H       0.310850   -0.415341   -0.832656
H       2.996067   -0.907318    3.399806
H       1.483522   -1.139997    4.274797
H       2.698719   -3.164800    2.336118
H       3.780557   -4.110231    4.359099
H       2.961340   -2.904896    5.381490
H       1.689433   -5.466915    4.255533
H       0.944049   -4.366741    5.445148
