15

C       0.018801    1.386395   -0.053900
O      -0.011652   -0.019600    0.024271
C       0.612847   -0.628082   -1.066759
C       0.564894   -2.136479   -0.955006
N      -0.005469   -2.666680    0.064902
O       0.030839   -4.053177    0.026101
C       1.174789   -2.858827   -2.021511
C       1.705292   -3.410509   -2.950640
H       1.050158    1.773107   -0.070983
H      -0.501944    1.757817   -0.950788
H      -0.488353    1.769617    0.834120
H       0.135096   -0.335915   -2.019809
H       1.671339   -0.320227   -1.149115
H      -0.426572   -4.291177    0.840430
H       2.168300   -3.917548   -3.761169
