18

C       0.764522    1.445745   -0.093140
N       0.047684    0.186957    0.079205
C       0.095782   -0.411477    1.386339
C      -0.534535    0.331489    2.537076
C      -1.170991   -0.926052    2.003237
C      -0.167933   -0.652574   -0.988370
N      -0.376413   -1.911024   -0.856429
C      -0.189830   -0.018037   -2.300270
N      -0.222524    0.406643   -3.375919
H       0.558045    1.868127   -1.077560
H       0.432218    2.157265    0.665376
H       1.851014    1.315153    0.009077
H       1.004183   -0.975681    1.593200
H      -0.026373    0.303145    3.494201
H      -1.033038    1.269679    2.320232
H      -2.079082   -0.819947    1.423100
H      -1.108726   -1.839439    2.582436
H      -0.587024   -2.337254   -1.755893
