17

O       0.521207    0.740999   -0.853028
C       0.017244   -0.271607    0.005284
C       0.712627   -0.213564    1.352628
O       0.494630    0.980339    2.115978
C      -0.025418   -0.250039    2.624301
C      -1.528636   -0.412008    2.674709
C      -2.232027   -0.234283    1.347270
O      -2.037199    0.998420    0.650737
C      -1.496721   -0.197784    0.074013
H       0.284428    1.578543   -0.433563
H       0.286319   -1.222874   -0.471402
H       1.752868   -0.539480    1.333767
H       0.500787   -0.613701    3.508343
H      -1.752801   -1.419355    3.049623
H      -1.946756    0.291262    3.405865
H      -3.264532   -0.586817    1.329239
H      -2.002051   -0.512660   -0.839317
