18

C      -0.110793    1.541759    0.161725
N       0.034505    0.103095    0.123821
C      -1.168592   -0.713504    0.412897
C      -0.344867   -1.591813    1.386922
O       0.452707   -2.599240    0.718846
C       1.622554   -1.738398    0.686852
C       0.806120   -0.547702    1.201840
C      -0.938899   -2.031671    2.621333
C      -1.445200   -2.383189    3.653982
H       0.867000    2.016988    0.031337
H      -0.750689    1.866094   -0.665527
H      -0.555391    1.920069    1.101985
H      -1.955155   -0.157792    0.944141
H      -1.596595   -1.231671   -0.450642
H       2.394441   -2.101611    1.377385
H       2.030174   -1.628389   -0.322168
H       1.201663    0.097395    1.988773
H      -1.889558   -2.702123    4.564444
