18

N      -0.117613   -1.153461    0.016823
C      -0.072809    0.000989    0.017443
C       0.007895    1.458770    0.016432
C       1.453188    1.963049   -0.145739
N       1.466601    3.419693   -0.113585
C       2.806483    3.991245   -0.146087
C       2.717333    5.519414    0.015859
C       4.032445    6.153546    0.016587
N       5.081208    6.638166    0.015724
H      -0.619175    1.840611   -0.798586
H      -0.410779    1.848770    0.949720
H       2.055761    1.595101    0.691609
H       1.890094    1.534476   -1.063697
H       0.931221    3.776792   -0.901053
H       3.377695    3.576233    0.691237
H       3.369787    3.752176   -1.064098
H       2.123907    5.951730   -0.799140
H       2.196640    5.756459    0.949186
