21

O      -0.007874    1.443684   -0.253289
C       0.021695    0.038015   -0.054410
C      -1.404269   -0.484616   -0.192922
C      -1.480600   -1.998152   -0.053990
C      -1.445546   -2.731123    1.333404
C      -2.907319   -2.260888    1.584132
C      -2.838948   -2.734630    0.095871
O      -3.822730   -2.681316   -0.873682
C      -2.035283   -3.972983    0.606381
H       0.889031    1.778751   -0.165237
H       0.672954   -0.455300   -0.794944
H       0.416886   -0.214457    0.943244
H      -2.030847    0.034842    0.537622
H      -1.780892   -0.198072   -1.182232
H      -0.826787   -2.470737   -0.798127
H      -0.632754   -2.734515    2.055924
H      -3.498462   -2.882684    2.263181
H      -3.078377   -1.201353    1.774394
H      -4.587533   -3.178204   -0.563863
H      -1.390633   -4.472751   -0.121454
H      -2.577002   -4.688008    1.232210
