19

C      -0.363740    1.494303   -0.094327
C       0.136994    0.064819   -0.066688
O       1.430935   -0.087752   -0.703790
C       1.943262   -0.852183    0.403474
C       0.675694   -0.584510    1.240388
C       0.864510    0.326596    2.458990
O      -0.384876    0.768514    2.984741
C       1.678118   -0.343692    3.478698
C       2.309222   -0.934936    4.314178
H       0.363868    2.184463    0.340868
H      -0.537385    1.799837   -1.130844
H      -1.300303    1.582983    0.462482
H      -0.600630   -0.589602   -0.554311
H       2.108359   -1.904861    0.141266
H       2.878915   -0.436222    0.797013
H       0.133462   -1.480078    1.555608
H       1.377676    1.243327    2.146127
H      -0.782852    0.024013    3.449891
H       2.878278   -1.437403    5.057287
