16

C       0.041501   -1.223387   -0.042487
C       0.032946   -0.026141   -0.144160
C       0.058497    1.426059   -0.252328
C       1.376374    2.025693    0.283722
C       1.415505    3.534486    0.142581
C       2.651273    4.247254   -0.241274
O       1.604377    4.040190   -1.184877
C       0.428565    4.265044    0.925225
N      -0.361746    4.813712    1.565650
H       0.031357   -2.281877    0.041139
H      -0.067123    1.725682   -1.299737
H      -0.789286    1.853564    0.297591
H       1.506612    1.755217    1.336633
H       2.221405    1.609746   -0.271627
H       2.798879    5.276497    0.078119
H       3.554451    3.661071   -0.401028
