19

C      -0.032740    1.524871    0.029925
C       0.045610    0.018129    0.004900
C       0.447787   -0.674597   -1.305418
C       1.284618   -1.858117   -0.867155
C       1.435266   -1.904625    0.457979
C       0.681717   -0.806317    1.121322
O       1.180884   -0.163011    2.265682
C      -0.827329   -0.800348    0.951374
O      -1.568208   -0.135542    1.927052
H       0.950891    1.976547   -0.137470
H      -0.705552    1.883091   -0.757575
H      -0.420657    1.889717    0.982202
H      -0.433740   -0.989760   -1.879835
H       1.015839   -0.001221   -1.962766
H       1.682444   -2.582815   -1.568352
H       1.985278   -2.658195    1.011936
H       1.287366   -0.827066    2.957188
H      -1.328061   -1.693940    0.584148
H      -0.927988    0.180327    2.580317
