22

C      -0.168617    1.497830   -0.312395
C       0.046290    0.024150    0.036778
C       0.997790   -0.660768   -0.942920
O       0.620250   -0.085111    1.347379
C      -0.213450   -0.580894    2.357943
C      -1.284406    0.373425    2.843471
C      -0.481950   -2.069351    2.365017
C       0.498901   -1.454248    3.346189
H       0.784590    2.034919   -0.273815
H      -0.581798    1.602513   -1.321230
H      -0.855380    1.976732    0.390200
H      -0.918737   -0.500833    0.024406
H       1.984565   -0.188557   -0.899232
H       1.117150   -1.718658   -0.693109
H       0.625435   -0.586613   -1.969787
H      -2.017962    0.589371    2.058971
H      -1.826275   -0.051260    3.693655
H      -0.834924    1.320417    3.160181
H      -1.436804   -2.424677    2.738117
H      -0.066309   -2.657163    1.554809
H       1.553171   -1.626519    3.164439
H       0.218864   -1.389202    4.391948
