21

C      -0.797994    1.083140    0.218215
C       0.266522    0.017599    0.030973
O       1.044699   -0.266085    0.914055
C       0.272513   -0.702221   -1.318336
C       1.633247   -1.345976   -1.671869
C       1.306554   -2.618803   -2.483995
C      -0.071066   -3.050387   -2.004688
C      -0.325293   -3.096174   -0.518520
C      -0.723178   -1.874219   -1.311354
H      -0.582536    1.935626   -0.437382
H      -1.783969    0.703899   -0.071220
H      -0.815799    1.420023    1.255331
H      -0.045628    0.003070   -2.096265
H       2.278668   -0.655498   -2.221013
H       2.150933   -1.589477   -0.741435
H       1.255496   -2.390626   -3.555488
H       2.071100   -3.393117   -2.357614
H      -0.658103   -3.704366   -2.640594
H      -1.126142   -3.741138   -0.173875
H       0.507032   -3.018389    0.173024
H      -1.777192   -1.654660   -1.440986
