22

C       0.019878    1.537703   -0.020860
C      -0.002404   -0.000555   -0.012674
C      -1.468940   -0.479117    0.086436
C       0.671922   -0.544869   -1.291355
C       1.046874   -2.022645   -1.175306
C       2.034740   -2.208255   -0.027587
N       1.542674   -1.557304    1.178213
C       0.703706   -0.481326    1.272180
O       0.482377    0.044006    2.351005
H       1.044124    1.919342   -0.088255
H      -0.540510    1.918693   -0.881408
H      -0.424820    1.928780    0.895687
H      -2.050046   -0.085472   -0.754476
H      -1.549600   -1.570285    0.072101
H      -1.916583   -0.122454    1.017179
H       0.007490   -0.377984   -2.147093
H       1.583997    0.033608   -1.491426
H       0.155152   -2.633360   -0.995688
H       1.501378   -2.383507   -2.103432
H       2.185921   -3.272065    0.186867
H       3.015269   -1.797778   -0.316344
H       1.978315   -1.793411    2.058740
