19

C      -0.725459    1.070083    0.230091
C       0.354070    0.034742   -0.003420
O       1.175273   -0.239360    0.843307
C       0.323256   -0.687911   -1.350587
C       1.655879   -1.375826   -1.728985
C       1.243903   -2.761812   -2.151437
C      -0.051897   -2.999299   -1.959451
C      -0.763944   -1.834694   -1.318937
O      -1.248920   -2.147204   -0.013904
H      -0.703297    1.837368   -0.551532
H      -1.703991    0.579993    0.184138
H      -0.594804    1.532050    1.209398
H       0.029684    0.025945   -2.126047
H       2.175271   -0.837948   -2.530180
H       2.337152   -1.401822   -0.870740
H       1.954625   -3.475711   -2.554714
H      -0.569086   -3.930901   -2.159327
H      -1.662501   -1.530651   -1.864693
H      -0.511044   -2.511872    0.489852
