23

C      -0.757868    1.165848    0.070426
C       0.069875   -0.113256   -0.031458
C       1.286408   -0.039928   -0.968113
C       2.085635   -1.261966   -0.519362
O       1.871477   -1.375700    0.884240
C       0.711992   -0.628122    1.285565
C       1.125385    0.435821    2.277264
C       0.192255    0.835872    3.395265
C       1.431375    0.032999    3.695728
H      -0.152669    2.012108    0.408758
H      -1.181720    1.426139   -0.905071
H      -1.588676    1.050846    0.773627
H      -0.581032   -0.916056   -0.402406
H       1.016191   -0.069267   -2.027105
H       1.853439    0.881634   -0.789507
H       1.729968   -2.169309   -1.033570
H       3.162628   -1.175587   -0.698904
H       0.024512   -1.319134    1.795777
H       1.749428    1.223218    1.862586
H       0.162498    1.878222    3.692343
H      -0.766712    0.331635    3.462004
H       1.310805   -1.013169    3.956662
H       2.254717    0.523842    4.202139
