20

C      -0.516153    1.311688    0.182701
C       0.007631   -0.088511    0.012455
O      -0.280014   -1.006823    1.089774
C       1.091465   -0.679299    0.815576
C       1.817128   -1.742058    0.014659
C       0.832979   -2.070911   -1.136203
C      -0.002070   -0.802961   -1.320970
C      -1.115784   -0.693210   -2.289147
N       0.180848   -0.046542   -2.575123
H       0.047659    2.032959   -0.418299
H      -1.571764    1.378711   -0.102993
H      -0.435920    1.608605    1.230761
H       1.600942   -0.123222    1.599819
H       2.753955   -1.319787   -0.367952
H       2.071585   -2.620192    0.615607
H       1.337877   -2.341495   -2.065236
H       0.182356   -2.898674   -0.843484
H      -1.355147   -1.538493   -2.929016
H      -1.967561   -0.066909   -2.036150
H       0.106836    0.953857   -2.405760
