19

C       0.562514    1.452862   -0.702295
C       0.250292    0.091023   -0.293086
C      -0.003616   -1.038734    0.040755
C      -0.327786   -2.385793    0.462146
C      -0.228700   -2.744994    1.979664
C      -1.572282   -3.538030    1.872556
C      -1.827895   -2.821026    0.506483
C      -1.363099   -5.019216    1.721928
O      -1.920628   -5.866863    2.370961
H       1.361050    1.471113   -1.452226
H      -0.312328    1.947692   -1.138645
H       0.893740    2.058446    0.148655
H       0.248721   -3.108235   -0.126394
H       0.658677   -3.297212    2.298721
H      -0.342664   -1.862453    2.611166
H      -2.306486   -3.367156    2.660755
H      -2.492635   -1.964647    0.630566
H      -2.188620   -3.432590   -0.324208
H      -0.623380   -5.302743    0.933486
