19

C       0.054858    1.499924   -0.015794
C       1.357034    0.738544   -0.051982
C       2.103318    0.551609    1.287212
C       1.151801   -0.331465    2.070165
C       0.346389   -0.265577    3.383326
C      -0.939709   -0.629659    2.547149
C      -0.045258   -0.664721    1.290185
O       0.978738   -1.643330    1.525004
C       0.020199   -0.010504   -0.044633
H      -0.220783    2.009272    0.903582
H      -0.253359    2.020139   -0.916126
H       1.941371    0.778592   -0.964103
H       3.079888    0.078557    1.142352
H       2.272154    1.507344    1.796585
H       0.653894   -0.968317    4.160953
H       0.294775    0.741709    3.804417
H      -1.442494   -1.567983    2.790569
H      -1.670719    0.181631    2.532122
H      -0.339130   -0.512423   -0.936630
