18

C       0.076747    1.571923   -0.128328
C       0.084145    0.061538    0.027337
N       1.054073   -0.663786   -0.832988
C       1.382627   -1.601822    0.268436
C       0.724787   -0.631631    1.270054
C       1.934186    0.039482    1.951843
O       3.128787   -0.610410    1.481995
C       2.874329   -1.593518    0.577709
O       3.734553   -2.289011    0.121742
H       1.087668    1.983822   -0.069128
H      -0.333266    1.848138   -1.105618
H      -0.546634    2.042593    0.640011
H      -0.942302   -0.318875   -0.085273
H       0.687199   -1.087843   -1.676893
H       0.989301   -2.618192    0.183254
H       0.021183   -1.035884    1.996007
H       2.019820    1.105589    1.726034
H       1.904749   -0.079059    3.038690
