17

C      -0.057574    1.575349    0.023776
C       0.022988    0.041619    0.024943
N       0.787445   -0.484178   -1.085381
C       1.855640   -1.268689   -0.701795
O       2.643208   -1.823817   -1.439392
C       1.803069   -1.268604    0.787999
C       0.770655   -0.535717    1.218038
C       0.335117   -0.271064    2.621739
H       0.944978    2.010328    0.067247
H      -0.550140    1.932633   -0.885852
H      -0.637477    1.936033    0.878827
H      -1.003341   -0.361066    0.017949
H       0.574030   -0.313178   -2.053287
H       2.523002   -1.809751    1.386457
H       0.960625   -0.809574    3.337309
H       0.387676    0.797841    2.861715
H      -0.706533   -0.576961    2.778393
