21

C      -0.025829    1.545961   -0.004232
C       0.011862    0.005732   -0.002582
C       0.821179   -0.569862   -1.210325
C       1.360116   -1.935860   -0.737034
C       1.555291   -1.775394    0.764768
C       2.247683   -0.522189    1.243239
C       0.739648   -0.587549    1.216812
C      -1.357415   -0.520708   -0.026020
C      -2.481683   -0.947915   -0.043144
H       0.990340    1.947447    0.055289
H      -0.497465    1.924242   -0.916145
H      -0.595728    1.922610    0.849898
H       0.204869   -0.642703   -2.108475
H       1.644961    0.113128   -1.439924
H       0.615813   -2.718759   -0.920123
H       2.274622   -2.222984   -1.267190
H       1.626451   -2.668408    1.375638
H       2.716391   -0.556358    2.220703
H       2.775880    0.101442    0.529348
H       0.203448   -0.591897    2.158734
H      -3.473944   -1.325472   -0.058715
