16

C       0.196176    1.445943    0.203448
C       0.042046   -0.035537    0.061348
C       1.077199   -0.978907   -0.414306
C       0.553495   -1.142602    1.031766
C       1.432639   -0.956301    2.194663
O       2.474129   -0.338855    2.155508
C      -0.850886   -1.717839    0.939968
O      -1.420853   -2.671499    1.386651
N      -1.283320   -0.671633    0.103895
H       1.219247    1.687117    0.504134
H      -0.008149    1.951439   -0.747118
H      -0.496377    1.835125    0.954397
H       0.834235   -1.755754   -1.132715
H       2.098492   -0.610034   -0.441291
H       1.063599   -1.410898    3.137013
H      -1.874386   -0.809437   -0.708640
