18

C       0.042719    1.579758    0.066761
C       0.004377    0.041399    0.019249
C       0.777119   -0.513181    1.134871
N       1.405580   -0.936479    2.007441
C      -1.460448   -0.534222    0.024208
C      -1.453995   -2.067585    0.074121
O      -2.153941   -0.104207    1.191463
C      -2.146366   -0.068015   -1.190075
C      -2.717522    0.328417   -2.170885
H       1.072963    1.938441    0.016406
H      -0.513295    1.991586   -0.778626
H      -0.394413    1.945844    0.999230
H       0.478886   -0.298908   -0.908805
H      -0.999357   -2.399136    1.010172
H      -2.480411   -2.435461    0.028540
H      -0.891073   -2.481733   -0.766024
H      -2.471903    0.792856    1.045634
H      -3.229890    0.666540   -3.038362
