14

N      -0.024956    1.342412    0.270933
C       0.106964    0.019289   -0.094779
O       1.128413   -0.482119   -0.483710
N      -1.121701   -0.693921   -0.022521
C      -2.415854   -0.165693   -0.161282
N      -3.379032   -0.996963   -0.133193
C      -2.773052   -2.314518    0.052197
C      -1.256200   -2.107835    0.114372
O      -0.378733   -2.905219    0.272743
H       0.856030    1.832422    0.317557
H      -0.691758    1.589546    0.985647
H      -2.534179    0.901304   -0.313973
H      -3.129485   -2.786989    0.973781
H      -3.035943   -2.985260   -0.772861
