21

C       0.068666    1.369787   -0.159916
C       0.069722   -0.137716    0.121772
C       0.731433   -0.444194    1.456817
O       1.164342   -1.524534    1.780604
C      -1.343033   -0.718906    0.134801
C      -2.069670   -1.010268   -1.157195
C      -1.660546   -2.147564   -0.251888
C      -0.605614   -3.140457   -0.701907
O       0.026498   -3.806909    0.365501
H       1.084465    1.778643   -0.166364
H      -0.387427    1.576195   -1.131279
H      -0.506762    1.911215    0.599491
H       0.657888   -0.656788   -0.643159
H       0.786135    0.408410    2.170711
H      -1.961271   -0.310525    0.932151
H      -3.117717   -0.744709   -1.239097
H      -1.510168   -0.889212   -2.080789
H      -2.452168   -2.610405    0.331228
H      -1.089511   -3.916748   -1.306663
H       0.120466   -2.642367   -1.367056
H       0.511726   -3.142415    0.878147
