13

O      -0.500934    0.521566    0.698121
C       0.084303    0.937622   -0.263682
C       1.314337    1.844767   -0.180658
C       1.244794    2.974050   -1.149918
C       0.931419    4.293827   -1.036373
C       1.019227    4.769838   -2.371445
N       1.349520    3.825746   -3.216818
O       1.493507    2.676992   -2.440076
H      -0.225029    0.680017   -1.299480
H       1.411212    2.208667    0.843646
H       2.189186    1.222329   -0.412822
H       0.680584    4.840395   -0.142971
H       0.853750    5.770813   -2.744426
