23

C      -0.055220    1.518931   -0.005218
C       0.027183   -0.002206    0.048429
C       1.108930   -0.622463   -0.901132
C       1.853538   -1.157588    0.328032
O       3.235359   -1.085231    0.450996
C       0.804089   -0.547965    1.256935
C       1.001122   -2.056638    1.196542
C      -0.044449   -3.012127    0.647725
C       1.731765   -2.615698    2.409519
H       0.934730    1.969937    0.126062
H      -0.455380    1.857802   -0.967159
H      -0.706287    1.907707    0.785960
H      -0.975461   -0.427155   -0.073069
H       0.779096   -1.349028   -1.651511
H       1.691938    0.156784   -1.399090
H       3.609918   -1.930662    0.179776
H       0.942150   -0.012851    2.190918
H      -0.553108   -2.630389   -0.239799
H       0.413887   -3.971051    0.377185
H      -0.811128   -3.220152    1.403548
H       1.023912   -2.834048    3.216959
H       2.243291   -3.554529    2.162565
H       2.482275   -1.918113    2.787010
