17

O      -0.006338   -0.043195    0.022665
C       0.007531    1.171763    0.016710
N      -1.134042    1.931899    0.048880
C      -1.141763    3.390099    0.040706
C       0.298900    3.902741   -0.009760
C       1.089268    3.132631   -1.103363
C       1.273142    2.017421   -0.030800
C       1.160253    3.145341    1.038223
H      -2.004019    1.422483    0.080244
H      -1.701407    3.762177   -0.829067
H      -1.643167    3.772392    0.941032
H       0.312909    4.994446   -0.016713
H       0.573976    2.874309   -2.032397
H       2.038421    3.622339   -1.334324
H       2.146754    1.368699   -0.055945
H       2.122483    3.637270    1.199974
H       0.707711    2.898282    2.002346
