19

C       0.130307    1.578166    0.087433
C       0.010061    0.044989    0.014404
C       0.766304   -0.563593    1.184555
O       1.804954   -1.164721    1.083922
C      -1.458070   -0.454108    0.038886
O      -2.170445    0.027730    1.172789
C      -2.218868   -0.152511   -1.260719
C      -3.640022   -0.676493   -1.190298
O      -4.619683   -0.016271   -1.414568
H       1.179721    1.880052    0.036231
H      -0.394133    2.063071   -0.741128
H      -0.279694    1.963428    1.026888
H       0.492805   -0.321333   -0.898089
H       0.281417   -0.403864    2.172711
H      -1.440986   -1.543420    0.175330
H      -2.391780    0.953721    1.024030
H      -2.259004    0.920542   -1.474407
H      -1.710418   -0.647121   -2.099754
H      -3.719624   -1.752261   -0.911655
