22

C      -0.191166    1.515632    0.126940
C      -0.065515    0.000995    0.040035
C       0.745948   -0.601165    1.184127
O      -1.408065   -0.524330    0.064398
C      -1.621849   -1.688901   -0.566676
N      -2.729592   -2.281424   -0.478588
C      -2.905768   -3.528012   -1.201996
C      -3.458991   -4.575776   -0.230377
O      -4.647324   -4.124288    0.381272
H       0.797955    1.980983    0.089789
H      -0.790465    1.900872   -0.701759
H      -0.674854    1.804181    1.064889
H       0.393729   -0.272456   -0.920947
H       1.765202   -0.202662    1.181558
H       0.280749   -0.362111    2.145209
H       0.805439   -1.690019    1.094251
H      -0.771146   -2.049329   -1.167031
H      -3.648346   -3.367566   -1.994209
H      -1.977688   -3.894635   -1.673179
H      -3.696430   -5.500071   -0.768716
H      -2.683601   -4.813490    0.518005
H      -4.471172   -3.206379    0.628456
