11

O       0.109118    1.336101    0.074896
C       0.071599   -0.001584    0.026202
N       0.083164   -0.621319   -1.139881
C       0.044182   -1.943826   -1.115867
F       0.056310   -2.556723   -2.289778
C      -0.006797   -2.681980    0.053962
N      -0.018218   -2.044390    1.234143
C       0.019712   -0.743655    1.224670
F       0.009200   -0.095589    2.379767
H       0.141375    1.651609   -0.839231
H      -0.037918   -3.764724    0.046344
