19

C      -0.038647    1.553038   -0.185281
C       1.423182    2.101014    0.006406
C       2.285271    0.847296   -0.176947
C       3.258226    0.223606    0.854288
C       2.131305    0.012605    1.898995
O       2.407237   -1.401849    2.116669
C       2.603192   -1.209018    0.688710
C       1.416375   -0.204813    0.507151
C      -0.038750    0.014020    0.171754
H      -0.754998    2.109977    0.424618
H      -0.348025    1.683477   -1.226643
H       1.645562    2.910689   -0.693342
H       1.540815    2.507431    1.016988
H       2.528021    0.648238   -1.226787
H       4.310522    0.420764    1.061960
H       1.838990    0.618027    2.756275
H       2.918524   -2.056627    0.079897
H      -0.712796   -0.225915    0.998387
H      -0.353891   -0.581715   -0.690575
