22

C      -0.586524    1.212331   -0.056334
C      -0.199284   -0.260191    0.105612
C       0.349276   -0.795081   -1.235838
C       0.844851   -2.226087   -1.141733
O       0.543580   -3.083061   -1.939461
C       1.743380   -2.475771    0.053814
C       1.118543   -1.884001    1.325489
N       0.802210   -0.466338    1.162794
C       0.422355    0.115518    2.443946
H       0.308645    1.832104   -0.175277
H      -1.207377    1.332673   -0.948850
H      -1.160107    1.589542    0.793370
H      -1.120548   -0.831868    0.344228
H      -0.411417   -0.735017   -2.017700
H       1.198747   -0.163513   -1.530471
H       1.923640   -3.548247    0.156585
H       2.702161   -1.974230   -0.130176
H       0.218847   -2.472834    1.596367
H       1.822534   -1.986490    2.157351
H       1.200656   -0.103230    3.180891
H       0.336702    1.200951    2.368862
H      -0.534253   -0.279687    2.836544
