18

C       0.289202    1.390061   -0.144962
O      -0.255611    0.135256    0.237213
C       0.510233   -0.515563    1.206573
C       0.030636   -1.962104    1.533840
C      -1.078869   -2.514213    0.658153
O      -1.131878   -3.911959    0.914816
N       1.378874   -2.412336    1.164813
C       1.836203   -1.195230    0.728182
O       2.846142   -0.835461    0.181853
H       1.296747    1.278164   -0.560801
H      -0.378452    1.806427   -0.902030
H       0.333435    2.078535    0.712745
H       0.656301    0.113301    2.097640
H      -0.206324   -2.142596    2.587563
H      -2.024645   -2.013407    0.913484
H      -0.857266   -2.299954   -0.395169
H      -1.782106   -4.302376    0.323880
H       1.744254   -3.347648    1.061131
