18

C       0.158535    1.536147   -0.094281
C       0.026807    0.023100    0.016522
C      -1.441943   -0.431348    0.058108
O       0.633075   -0.526450   -1.185911
C       1.134802   -1.780270   -1.140297
N       1.408509   -2.506770   -0.143512
C       1.233412   -1.947785    1.186153
C       0.729757   -0.515130    1.270959
O       0.821777    0.145820    2.277164
H       1.209502    1.823051   -0.178345
H      -0.373974    1.892774   -0.979691
H      -0.256448    2.010403    0.796099
H      -1.951616   -0.093700   -0.848374
H      -1.518737   -1.521324    0.110755
H      -1.945096   -0.003901    0.929472
H       1.316936   -2.141582   -2.151099
H       0.536952   -2.580052    1.756408
H       2.181918   -2.001682    1.732954
