15

C      -0.002961    1.415609    0.027089
O       0.002088    0.006051   -0.002151
C       0.662159   -0.558671    1.101205
C       0.604680   -2.044803    0.962841
C       0.057248   -2.866639    0.006675
N       0.284005   -4.165286    0.357750
N       0.940934   -4.199732    1.477109
N       1.140498   -2.915472    1.852758
H       1.018553    1.826316    0.012721
H      -0.534310    1.754434   -0.864396
H      -0.518865    1.801983    0.919802
H       1.712046   -0.215389    1.147624
H       0.187145   -0.240151    2.047336
H      -0.472850   -2.595100   -0.889771
H       1.638997   -2.728229    2.708190
