20

C       0.002075    1.587184    0.150149
C       0.019668    0.065496    0.150401
C       0.752624   -0.678528   -1.030409
C       1.677834   -1.333557    0.009494
O       2.330101   -0.261365    0.709649
C       0.996715   -0.630895    1.114485
C       2.385118   -2.634835   -0.060473
C       3.833513   -2.664801   -0.396743
N       3.376183   -2.975115    0.968682
H       1.020736    1.978376    0.077964
H      -0.574318    1.974143   -0.696709
H      -0.450441    1.978267    1.068029
H      -0.989942   -0.337889    0.278560
H       0.105837   -1.390462   -1.548787
H       1.264430   -0.048751   -1.762707
H       0.864369   -0.902299    2.156359
H       1.759636   -3.467558   -0.375723
H       4.242238   -3.505970   -0.949010
H       4.327063   -1.712654   -0.569556
H       3.518313   -2.146851    1.545219
