19

C      -0.161093    1.481147    0.023821
C       0.084028   -0.003267   -0.004657
N      -0.708328   -0.904528    0.854413
C       0.752839   -0.783157    1.069521
C       1.578053   -1.886704    0.432747
N       0.789782   -2.910601   -0.284261
C       1.399710   -1.800170   -1.038989
C       0.388795   -0.685162   -1.363630
O      -0.773846   -1.152711   -2.006421
H       0.688047    2.033222   -0.394401
H      -1.047669    1.735729   -0.568163
H      -0.321741    1.836754    1.047625
H      -1.196092   -0.352192    1.557345
H       1.113306   -0.317860    1.981589
H       2.520641   -2.167085    0.890575
H       1.356341   -3.746933   -0.403935
H       2.195621   -2.017565   -1.744052
H       0.848824    0.041219   -2.041851
H      -1.158241   -1.781807   -1.378941
