21

C       0.417101    1.401141   -0.435430
C       0.017253   -0.040782   -0.064208
C      -1.465689   -0.080638    0.330949
C       0.350677   -0.975391   -1.213911
C       1.458742   -1.682929   -1.009776
C       2.080666   -1.382786    0.331885
C       0.924580   -0.648885    1.074078
C       1.357320    0.283864    2.102185
C       1.717917    1.050745    2.956061
H       1.483260    1.471513   -0.669905
H      -0.142483    1.734218   -1.316055
H       0.204580    2.090914    0.386625
H      -2.096039    0.320502   -0.470194
H      -1.795097   -1.104252    0.537487
H      -1.643152    0.522656    1.227998
H      -0.249410   -0.991829   -2.118404
H       1.905361   -2.370540   -1.719601
H       2.407586   -2.274587    0.876579
H       2.963868   -0.738873    0.229237
H       0.319848   -1.427380    1.556754
H       2.037973    1.725617    3.710616
