13

N      -0.181993    1.285307    0.008407
C       0.006688    0.036191    0.001318
O      -1.174032   -0.732644    0.003946
C      -1.113679   -2.075087   -0.003947
C       0.073958   -2.730961   -0.014211
C       1.248100   -1.912709   -0.015929
N       1.232176   -0.618510   -0.008709
C      -2.381846   -2.710391   -0.000407
C      -3.451208   -3.261038    0.002494
H       0.728226    1.742939    0.005689
H       0.116881   -3.809596   -0.020491
H       2.227210   -2.391143   -0.023730
H      -4.398439   -3.743149    0.005097
