18

C      -0.065194    1.512669    0.003853
C       0.033583    0.005713    0.019818
C       1.336215   -0.690987   -0.200217
C       0.710720   -0.708568    1.185486
N       1.311947    0.036323    2.262331
C       1.119195   -0.672857    3.309442
N       0.436704   -1.864921    3.100841
C       0.130772   -1.971396    1.740710
N      -0.479412   -2.878941    1.089184
H       0.824746    1.967871    0.444154
H      -0.170257    1.877516   -1.023748
H      -0.934072    1.858489    0.573440
H      -0.840721   -0.535265   -0.333529
H       1.339314   -1.640769   -0.723639
H       2.229566   -0.083956   -0.298923
H       1.447025   -0.402890    4.307087
H       0.199660   -2.541826    3.805958
H      -0.786372   -3.646684    1.686074
