16

O       0.128377    1.363932    0.378837
C       0.052433   -0.017028    0.037883
C      -1.394223   -0.487195    0.013143
O      -2.160336    0.250186   -0.959807
C      -2.255063   -0.212390   -2.226447
O      -3.254117   -0.063431   -2.878930
N      -1.130221   -0.847428   -2.742282
C       0.220438   -0.699331   -2.403787
C       0.770764   -0.335081   -1.242195
H      -0.359416    1.842866   -0.302088
H       0.554010   -0.533906    0.866517
H      -1.465979   -1.561747   -0.185700
H      -1.872393   -0.262383    0.968364
H      -1.309405   -1.151182   -3.687426
H       0.866291   -0.933331   -3.244377
H       1.851632   -0.249070   -1.220616
