16

O       0.172165    0.126934   -0.690608
C      -0.019596    1.156368   -0.131583
C      -1.200063    2.044245    0.257131
C      -0.108726    2.938595    0.861112
O       0.919265    1.994243    0.427468
C       0.159040    4.444597    0.670544
C      -0.899929    4.697870    1.774363
C       0.009001    3.545107    2.273324
N       1.187358    4.386252    1.794879
H      -1.751462    2.455096   -0.590514
H      -1.896013    1.583990    0.960819
H       0.334346    4.997238   -0.252372
H      -0.768407    5.635321    2.312779
H      -1.942597    4.469372    1.548522
H       0.007580    3.038289    3.238235
H       1.950658    3.762814    1.516457
