20

C      -0.026371    1.513487    0.089046
C       0.017565    0.004905    0.030278
C       0.335346   -0.805280   -1.255706
N      -0.373609   -1.970260   -0.591929
C       0.582016   -2.213516    0.537962
C       0.881700   -0.765672    1.051460
C      -1.269415   -0.908771    0.001399
C      -2.070074   -1.147067    1.248666
O      -2.051236   -2.130683    1.945662
H       0.972249    1.935893   -0.070207
H      -0.688789    1.925947   -0.679478
H      -0.378932    1.867986    1.063818
H      -0.216139   -0.472375   -2.138775
H       1.383066   -0.994288   -1.508646
H       0.112891   -2.848674    1.285925
H       1.467853   -2.715521    0.142142
H       1.937315   -0.487638    0.976842
H       0.562256   -0.602064    2.084833
H      -1.966275   -0.550661   -0.767446
H      -2.727658   -0.281659    1.504273
