23

C       0.076803    1.385338   -0.141320
O      -0.078747   -0.003859    0.008293
C       0.640383   -0.519255    1.110414
C       0.410386   -2.025722    1.157805
C       1.276733   -2.754572    2.187403
C       0.993156   -2.343233    3.626707
C       1.395381   -4.283844    1.945387
C       2.860177   -3.978503    1.582469
O       2.695185   -2.577972    1.877155
H       1.130310    1.665410   -0.302266
H      -0.506084    1.689490   -1.014502
H      -0.290422    1.937176    0.739397
H       1.717447   -0.314379    1.003613
H       0.302626   -0.032119    2.040355
H      -0.648234   -2.232824    1.357417
H       0.632875   -2.424762    0.162073
H      -0.058404   -2.517680    3.880125
H       1.616145   -2.919060    4.316852
H       1.212306   -1.283041    3.783391
H       1.256811   -4.897109    2.837700
H       0.775532   -4.678573    1.138508
H       3.621439   -4.443698    2.220211
H       3.131931   -4.148092    0.533092
