18

C      -0.195780    1.557722    0.102668
C       0.035293    0.055850    0.041377
C       1.137443   -0.546339   -0.932738
C       1.987745    0.399534   -1.643347
N       2.658292    1.168460   -2.188324
C       1.766348   -1.280737    0.265255
C       2.185437   -0.283673    1.321618
C       0.737746   -0.664805    1.202397
O       0.045405   -1.302902    2.213784
H       0.730369    2.107084    0.292932
H      -0.613173    1.931872   -0.837382
H      -0.905454    1.797880    0.901741
H      -0.904759   -0.462667   -0.167833
H       0.690940   -1.231215   -1.656816
H       2.163576   -2.286320    0.227349
H       2.686442   -0.736641    2.171237
H       2.561125    0.698272    1.046092
H       0.034826   -0.730813    2.988437
