26

C      -1.110829    0.440833    3.610088
C      -0.887465   -0.860921    2.823503
C      -1.004229   -2.060312    3.777169
C      -1.834609   -0.975785    1.597268
C      -1.699416    0.235282    0.654886
C      -1.559660   -2.252074    0.811378
C      -2.243633   -3.547248    1.093516
N      -2.490326   -2.845189   -0.158364
C      -3.820803   -2.289987   -0.356106
H      -0.459758    0.471331    4.489818
H      -0.899301    1.333128    3.016272
H      -2.146374    0.511055    3.965463
H       0.141713   -0.842932    2.433514
H      -2.025245   -2.153568    4.167165
H      -0.745321   -3.003253    3.291335
H      -0.336506   -1.932041    4.635514
H      -2.862950   -1.006430    1.981624
H      -2.306032    0.104030   -0.244574
H      -2.015909    1.165468    1.132598
H      -0.658529    0.360189    0.332852
H      -0.527711   -2.306522    0.458166
H      -1.713692   -4.494565    1.022281
H      -3.032473   -3.529955    1.846061
H      -4.295109   -1.883240    0.550925
H      -3.782389   -1.496582   -1.109266
H      -4.469352   -3.083643   -0.741725
