16

O       0.015515   -0.002038    0.012221
C      -0.002754    1.196448    0.003418
C      -1.235629    2.131151    0.015467
N      -0.669832    3.497702    0.070505
C       0.536900    3.344863   -0.783892
C       1.194930    2.166115   -0.006424
C       1.190422    2.786456    1.404233
O       1.963874    2.594317    2.299574
C      -0.055351    3.703973    1.401098
H      -1.815899    2.001127   -0.904411
H      -1.895032    1.918530    0.860387
H       0.262985    3.094642   -1.811361
H       1.136159    4.258217   -0.786255
H       2.139688    1.724635   -0.310039
H       0.247143    4.750268    1.517537
H      -0.738444    3.459817    2.218217
