19

O      -0.299456    1.450695    0.464906
C      -0.072700    0.095265    0.098270
C       1.155984   -0.432142    0.856042
O       1.471776   -1.783987    0.602335
C       0.623000   -2.724948    1.241919
C      -0.548498   -3.156781    0.360617
C      -1.426676   -2.040160   -0.206268
O      -2.151025   -2.259333   -1.148988
C      -1.370716   -0.658345    0.433027
H       0.443700    1.976410    0.150679
H       0.109802    0.008897   -0.984189
H       2.037439    0.145613    0.552481
H       0.995129   -0.256232    1.932059
H       1.241598   -3.600021    1.468477
H       0.267859   -2.321491    2.201876
H      -0.191585   -3.740182   -0.493656
H      -1.206403   -3.824742    0.934505
H      -1.473375   -0.726623    1.523766
H      -2.209939   -0.081319    0.040502
