16

C       0.632082    0.731155    0.567261
O       0.111858   -0.515435    0.138494
C      -1.275042   -0.462195   -0.155483
C      -1.647556   -1.638633   -0.932142
C      -2.005238   -2.607916   -1.545440
C      -2.129493   -0.401035    1.148817
C      -1.818671   -1.449506    2.192380
O      -2.970289    0.452924    1.279877
H       1.699722    0.582176    0.739742
H       0.494945    1.506851   -0.199941
H       0.165601    1.081391    1.499366
H      -1.520692    0.449712   -0.720487
H      -2.309334   -3.459953   -2.102325
H      -2.050771   -2.441011    1.788948
H      -0.749858   -1.449117    2.423458
H      -2.408776   -1.265445    3.090209
