16

C      -0.193098    1.443844   -0.105215
C      -0.027800   -0.067710   -0.032876
C       1.153590   -0.614324   -0.931309
O       1.566719    0.053968   -2.075761
C       2.018699   -0.542729    0.328811
O       3.154833   -0.234533    0.518461
C       0.750435   -0.584281    1.237785
C       0.743399    0.200026    2.452550
N       0.739184    0.846735    3.410836
H       0.744709    1.968169    0.110334
H      -0.517236    1.735017   -1.107623
H      -0.934324    1.792035    0.618487
H      -0.977376   -0.578919   -0.195164
H       0.947943   -1.659187   -1.195142
H       2.212081    0.724610   -1.822996
H       0.487156   -1.623495    1.459250
