19

C      -0.107733    1.517428    0.041694
C       0.119535    0.039375   -0.000935
N      -0.744686   -0.929387    0.738236
C       0.722978   -0.901974    0.987192
C       1.307273   -1.785323   -0.132480
O       0.892400   -3.120172   -0.168543
C       0.685529   -0.783918   -1.148287
C       0.144612   -1.015621   -2.497369
N       1.426597   -0.291137   -2.303635
H       0.771360    2.060841   -0.321574
H      -0.964490    1.809716   -0.577073
H      -0.305481    1.855273    1.064452
H      -1.191342   -0.422039    1.502119
H       1.115949   -0.717815    1.980004
H       2.398459   -1.768668   -0.181779
H      -0.061030   -3.095034   -0.007697
H       0.245297   -1.998005   -2.949749
H      -0.732538   -0.453263   -2.807896
H       1.274597    0.709159   -2.421018
