18

C      -0.243894    1.494098    0.013386
C      -0.033782    0.017525   -0.017077
N      -0.034427   -0.740261   -1.106643
C       0.194794   -1.983412   -0.613666
N       0.337334   -2.052507    0.699246
N       0.187895   -0.755652    1.073341
C       0.271853   -0.370949    2.453671
C      -0.254348   -1.293791    3.518108
C       1.233417   -1.078982    3.367796
H       0.620500    2.021671    0.431047
H      -0.396703    1.838439   -1.009809
H      -1.122458    1.769991    0.606652
H       0.259306   -2.864499   -1.234836
H       0.130093    0.695302    2.573782
H      -0.769366   -0.850890    4.363077
H      -0.648551   -2.242401    3.174796
H       1.802435   -1.888517    2.927367
H       1.758812   -0.485662    4.107608
