19

C      -0.148136    1.504864    0.135904
C      -0.053429    0.023688    0.001797
C      -0.097320   -0.819376   -1.040816
C      -0.224009   -0.624654   -2.516953
O       0.064813    0.693250   -2.960434
C       0.048734   -2.184259   -0.328670
C      -0.961958   -2.044531    0.845377
C       0.118647   -0.973264    1.172910
O       1.117971   -1.905056    0.636659
H       0.757366    1.923155    0.595143
H      -0.303164    1.978655   -0.834424
H      -0.982613    1.785359    0.791970
H       0.408305   -1.364717   -3.037182
H      -1.252650   -0.823312   -2.847783
H       0.969898    0.888302   -2.694859
H       0.189134   -3.093302   -0.914288
H      -1.981311   -1.717504    0.628392
H      -0.935867   -2.895443    1.530321
H       0.331982   -0.601404    2.175337
