13

C      -0.005423    1.581474   -0.015952
C       1.558224    1.419405   -0.113988
C       1.311469   -0.013771    0.342222
C       1.550383   -1.313182    0.712432
N       0.337309   -1.907465    1.006118
C      -0.609079   -1.003001    0.821587
N      -0.039956    0.164158    0.415449
H      -0.363193    2.277621    0.746063
H      -0.523622    1.762084   -0.960481
H       1.963256    1.539268   -1.121504
H       2.122748    2.051861    0.575081
H       2.475060   -1.861810    0.791321
H      -1.667221   -1.152627    0.966211
