19

C       0.013982    1.573787   -0.126315
C      -0.058561    0.064336    0.144475
C      -1.474382   -0.510594    0.090341
O      -2.305514    0.047349    1.067778
C      -2.046265   -0.751704   -1.381001
O      -1.158081   -1.911914   -1.433333
C      -1.550875   -2.075642   -0.033828
C      -3.062616   -2.311109   -0.160635
C      -3.398520   -1.406076   -1.082304
H       1.052584    1.915819   -0.106378
H      -0.400941    1.826891   -1.107433
H      -0.521968    2.168823    0.624440
H       0.554841   -0.467720   -0.584601
H       0.354760   -0.148205    1.138855
H      -2.042411    0.961584    1.209379
H      -1.933534   -0.057160   -2.213273
H      -0.924843   -2.758586    0.540291
H      -3.663055   -3.012794    0.397971
H      -4.358436   -1.145476   -1.501802
