19

O      -0.511677    1.383544    0.767753
C      -0.009248    0.218391    0.086070
C       0.864870   -0.630239    0.971597
C       0.201325   -1.705650    1.412661
C      -1.165720   -1.792883    0.848020
C      -1.942619   -3.081719    0.745504
C      -2.383952   -2.024726    1.718715
C      -1.183129   -0.740254   -0.281962
O      -2.396462   -0.057598   -0.464223
H      -0.597935    1.147711    1.699067
H       0.489521    0.611196   -0.803853
H       1.871593   -0.343768    1.251341
H       0.595540   -2.446728    2.101385
H      -2.538676   -3.229127   -0.149632
H      -1.488227   -3.986876    1.136049
H      -2.236298   -2.200023    2.779125
H      -3.257375   -1.436183    1.459984
H      -0.938913   -1.246918   -1.224439
H      -2.285042    0.778954    0.014014
