18

C      -0.109495    1.506593    0.225372
C      -0.116626   -0.001160   -0.036877
C       0.702736   -0.778785    1.015180
C      -1.535047   -0.536329   -0.046444
O      -2.500450   -0.024301    0.453078
O      -1.585561   -1.737642   -0.702997
C      -2.858601   -2.384322   -0.712426
C      -2.998536   -3.301719    0.424135
N      -3.111162   -4.035042    1.308986
H       0.918129    1.880989    0.233042
H      -0.667057    2.049562   -0.542658
H      -0.569454    1.731858    1.190990
H       0.311313   -0.215632   -1.022706
H       0.693539   -1.852436    0.812590
H       1.740500   -0.434088    1.005113
H       0.299625   -0.613250    2.019358
H      -3.659978   -1.641757   -0.677341
H      -2.913458   -2.949512   -1.645510
