15

C      -0.080139   -1.130339   -0.152686
C      -0.041566    0.068047   -0.061976
C       0.013800    1.509970    0.056918
C      -0.120993    1.961326    1.528399
C       1.343169    2.127779    1.667224
C       1.492476    2.089206    0.114358
N       1.381290    3.484432   -0.339940
C       0.752446    4.070312    0.597364
N       0.485723    3.317817    1.792324
H      -0.119921   -2.187594   -0.244048
H      -0.628554    1.996372   -0.683986
H      -0.875967    1.629900    2.229249
H       2.038758    1.867342    2.455701
H       2.275170    1.519987   -0.377760
H       0.415448    5.100545    0.554496
