18

C      -0.256959    1.472563   -0.064372
C      -0.071511   -0.013032    0.110392
O       1.238306   -0.551746   -0.106798
C       0.680427   -0.650346    1.206468
C       1.369958    0.111412    2.289024
C       0.893343    0.008798    3.708591
C       2.222599   -0.620251    3.326797
C       2.336680   -2.051539    3.298117
N       2.421402   -3.205372    3.279902
H       0.545209    2.045744    0.404649
H      -0.272648    1.725350   -1.129459
H      -1.211928    1.789471    0.368492
H      -0.864223   -0.616979   -0.336915
H       0.388309   -1.663357    1.489966
H       1.785604    1.063247    1.979956
H       0.923663    0.890781    4.337093
H       0.076268   -0.672075    3.919428
H       3.124024   -0.113012    3.652518
