15

C      -0.018043   -1.194630   -0.027950
C       0.006974    0.005244    0.034885
C       0.040177    1.452766    0.065082
C      -0.315023    2.089931    1.437654
O       0.663673    1.479314    2.318500
C       1.622838    2.292637    1.649673
C       0.612219    3.391904    1.321524
O       1.057803    3.534585   -0.026301
C       1.439940    2.134631    0.066544
H      -0.041347   -2.255301   -0.070675
H      -0.543740    1.883466   -0.753669
H      -1.335957    2.059681    1.810317
H       2.604933    2.372064    2.109753
H       0.387048    4.307580    1.863747
H       2.203032    1.821626   -0.641327
