17

N      -0.565257    1.312652    0.848220
C      -0.071565    0.393954   -0.029423
O       1.074081    0.431693   -0.440356
C      -1.041490   -0.687881   -0.467882
C      -1.130598   -0.912281   -2.019000
C      -0.929436   -2.385906   -1.751937
C      -0.511831   -2.156490   -0.316192
N      -1.177811   -3.388295   -2.482356
O      -0.909489   -4.589422   -1.794898
H       0.048424    2.041232    1.175011
H      -1.505222    1.275100    1.199425
H      -2.030980   -0.568713   -0.020350
H      -2.051783   -0.609822   -2.521027
H      -0.269470   -0.460105   -2.520762
H       0.575365   -2.173439   -0.192429
H      -0.976909   -2.790280    0.441304
H      -1.147666   -5.253324   -2.450574
