12

O       0.001650    0.030114    0.003771
C      -0.014659    1.232005    0.010596
C      -1.272677    2.118920    0.032243
C      -0.712926    3.515329    0.032077
C       0.621388    3.533535    0.014390
C       1.218830    2.152915   -0.000805
H      -1.903919    1.893507   -0.837170
H      -1.880195    1.884276    0.916006
H      -1.344476    4.396076    0.045103
H       1.228801    4.431186    0.010992
H       1.855752    1.935245    0.866445
H       1.832701    1.944495   -0.886740
