14

C       0.062092    1.525298    0.003415
C       0.051142    0.026530    0.009553
C      -0.033727   -0.804404   -1.084678
O      -0.121637   -0.573818   -2.422661
N      -0.017347   -2.105161   -0.671289
C       0.078500   -2.139973    0.707792
C       0.120871   -0.844250    1.147957
H       0.919169    1.928600    0.555110
H       0.129375    1.930511   -1.014254
H      -0.841754    1.953327    0.454675
H      -0.159272    0.377550   -2.560372
H      -0.066099   -2.893999   -1.291295
H       0.108931   -3.078041    1.236123
H       0.196628   -0.530033    2.178430
