17

O      -0.598461    0.651733    0.698048
C       0.119810    0.919590   -0.229274
C       1.297533    1.869353   -0.167232
C       1.206709    2.966062   -1.200724
C       0.175278    4.103788   -1.389049
C       1.173586    4.349203   -2.541525
C       2.387078    3.874617   -1.687060
O       2.876003    2.917346   -2.671472
C       1.422598    2.825180   -2.750315
H      -0.047121    0.465017   -1.233916
H       1.368039    2.273677    0.847116
H       2.209926    1.292495   -0.380441
H      -0.837957    3.806591   -1.673554
H       0.140438    4.862465   -0.602285
H       1.182382    5.119850   -3.310785
H       3.108881    4.448803   -1.106121
H       0.978132    2.133144   -3.465572
