19

C       0.261103    1.557137   -0.284251
C       0.104860    0.070068   -0.047455
C       1.308776   -0.835248    0.070449
C       0.426436   -0.599534    1.270621
C       0.936615    0.180426    2.477562
C       1.654556   -0.661162    3.426001
C       2.242713   -1.372340    4.209190
C       2.904464   -2.172127    5.089131
C       3.492073   -2.881109    5.870656
H       1.166814    1.956248    0.181657
H       0.331786    1.769333   -1.356548
H      -0.592923    2.120197    0.108993
H      -0.750089   -0.360214   -0.563371
H       1.293968   -1.808209   -0.407839
H       2.285700   -0.360185    0.073582
H      -0.225076   -1.422768    1.548936
H       1.596223    0.994561    2.154268
H       0.094100    0.662135    2.993355
H       4.007966   -3.504976    6.557228
