16

O      -0.044836    1.384933   -0.002667
C       0.023174   -0.007455    0.029403
C       0.407896   -0.770381   -1.292738
C      -0.846213   -1.633325   -1.092763
C      -1.353081   -0.733792   -0.027937
N      -0.994048   -2.110754    0.316742
C       0.223870   -2.106347    1.093137
O       0.733108   -3.096825    1.529244
C       0.716461   -0.659602    1.226524
H       0.851123    1.738377   -0.012771
H       0.271611   -0.107677   -2.150397
H       1.384067   -1.263603   -1.348833
H      -1.372094   -2.207189   -1.845520
H      -2.335209   -0.343257    0.205786
H       1.808943   -0.629065    1.211948
H       0.360873   -0.219295    2.166135
