16

O      -0.379912    0.380391    0.597479
C       0.149111    0.991909   -0.295414
C       1.255087    2.002305   -0.137258
C       0.986705    3.415509   -0.718783
O       1.193047    4.018962    0.570413
C       1.489314    2.755157    1.198690
C       0.575096    2.482052    2.399095
C       0.863095    3.403964    3.496503
N       1.103383    4.125341    4.366246
H      -0.154998    0.832670   -1.355963
H       2.163887    1.543491   -0.542210
H       1.711343    3.764557   -1.462263
H      -0.028204    3.589515   -1.098268
H       2.534329    2.720840    1.529661
H      -0.473731    2.582437    2.108766
H       0.712515    1.452669    2.742590
