17

C       0.230582    1.549749   -0.265896
C      -0.400727    0.332086    0.402534
N       0.313287   -0.004699    1.629371
C      -0.109489   -0.969878    2.325389
O      -1.209871   -1.744156    2.012885
C      -1.394188   -2.738451    3.022286
C      -0.283034   -2.502205    4.004768
C       0.451672   -1.472840    3.583609
H       1.279114    1.354586   -0.510298
H      -0.298626    1.806515   -1.189327
H       0.199874    2.415486    0.402604
H      -1.461750    0.525877    0.618637
H      -0.390746   -0.524635   -0.287561
H      -2.391318   -2.620504    3.468314
H      -1.351904   -3.734352    2.560268
H      -0.143319   -3.098125    4.896468
H       1.324013   -1.031170    4.041284
