21

C      -0.408840    1.346563   -0.025143
C      -0.008261   -0.107145    0.064603
C      -0.627273   -0.997640    1.124807
C       0.843052   -0.662747    1.189066
C       1.817565   -1.675924    0.612389
C       1.220602   -2.056611   -0.762992
C       0.440087   -0.801734   -1.231430
C      -0.727166   -1.144875   -2.127567
O      -0.929524   -0.678112   -3.219490
H       0.395700    1.952464   -0.458072
H      -1.295985    1.481808   -0.654362
H      -0.639582    1.752673    0.964553
H      -1.278730   -0.509246    1.841660
H      -0.931095   -2.011175    0.884507
H       1.183576   -0.008255    1.984754
H       2.798809   -1.203958    0.484081
H       1.963134   -2.553781    1.251173
H       1.981027   -2.356680   -1.487618
H       0.535055   -2.905539   -0.660292
H       1.091815   -0.119826   -1.788985
H      -1.434326   -1.885183   -1.682472
