19

O      -0.033434   -0.098994   -0.009497
C       0.019817    1.109497    0.027006
C      -1.258121    1.967031    0.074146
N      -1.537114    2.791372   -1.103742
C      -0.539242    3.802899   -1.446734
C       0.719992    3.275788   -2.128482
N       2.024530    3.740716   -1.621058
C       1.633839    2.333651   -1.432948
C       1.348356    1.862132   -0.012470
H      -2.097671    1.283347    0.226889
H      -1.199200    2.635511    0.944150
H      -1.735230    2.198531   -1.903281
H      -1.015988    4.542680   -2.101083
H      -0.254258    4.330974   -0.531140
H       0.627106    3.139244   -3.205547
H       2.695280    3.827475   -2.380460
H       2.117893    1.587253   -2.058825
H       1.310246    2.735437    0.645163
H       2.139270    1.193296    0.336454
