19

C      -0.386396    1.535473   -0.218450
C      -0.038580    0.065358   -0.060653
C       1.122619   -0.631490   -0.816040
C       2.384393    0.179377   -0.454703
C       2.159613    0.215098    1.102122
C       2.190052    1.516445    1.745896
C       2.227056    2.578619    2.309619
C       0.791046   -0.537138    1.103989
O       1.113752   -1.656183    0.229608
H       0.477817    2.193114   -0.115069
H      -0.836003    1.710976   -1.202202
H      -1.119136    1.839498    0.536360
H      -0.927876   -0.559831   -0.176099
H       1.027553   -1.024096   -1.828712
H       3.297394   -0.354449   -0.723099
H       2.409995    1.172991   -0.906468
H       2.887664   -0.436613    1.594470
H       2.256266    3.518425    2.802987
H       0.370375   -0.817605    2.069391
