16

C      -0.037703    1.451767    0.293884
C       0.038511   -0.052347    0.213856
O       1.071217   -0.675286    0.126705
C      -1.319949   -0.798362    0.249510
O      -2.347901   -0.156449    0.337327
C      -1.263592   -2.272672    0.172149
C      -2.333784   -3.047964    0.935522
C      -2.413675   -2.973409   -0.545973
H       0.966711    1.873954    0.261124
H      -0.644602    1.839674   -0.530272
H      -0.550760    1.751697    1.213041
H      -0.273490   -2.699721    0.097081
H      -2.021027   -3.974131    1.403242
H      -3.030874   -2.444402    1.505847
H      -3.164744   -2.319931   -0.975253
H      -2.157065   -3.846445   -1.134471
