16

N       0.126286    1.432097    0.100778
C       0.042265    0.049062    0.011537
C      -1.048892   -0.739160   -0.187474
O      -0.588275   -2.052320   -0.291085
C       0.742315   -1.946390   -0.129766
N       1.181746   -0.742602    0.050585
N      -2.395413   -0.430275   -0.289776
C      -3.229304   -1.112342   -1.290800
C      -3.402084   -1.399569    0.159450
H       0.882078    1.731173    0.702506
H      -0.751963    1.858111    0.365034
H       1.313834   -2.861153   -0.160735
H      -3.937196   -0.474610   -1.811781
H      -2.753935   -1.877086   -1.898128
H      -3.045513   -2.358075    0.524509
H      -4.238999   -0.973866    0.705429
