17

O       0.012378    0.027816    0.096313
C      -0.014659    1.225757    0.034447
C      -1.251429    2.153389    0.005406
C      -0.554491    3.526676    0.052762
O       0.609777    3.286639   -0.767585
C       1.172262    2.211823   -0.007494
C       1.249474    2.784142    1.414095
C       1.431272    4.278543    1.518591
C       0.041730    3.708422    1.452537
H      -1.797975    2.011380   -0.931874
H      -1.924360    1.936883    0.838672
H      -1.111344    4.366382   -0.363198
H       2.085708    1.840739   -0.468674
H       1.509927    2.128008    2.234801
H       1.757893    4.649783    2.483578
H       1.816802    4.818524    0.661814
H      -0.623020    3.753404    2.306569
