18

C      -0.110571    2.000832   -0.244341
C      -0.077334    0.537273    0.219889
C       0.875320   -0.345274   -0.607953
N       0.255831   -0.754435   -1.960101
H      -0.595321   -1.294346   -1.788586
H       0.006973    0.056879   -2.530258
H       0.899158   -1.345176   -2.492093
C       0.398454    0.306134    1.597753
C       1.029174   -0.532309    2.227084
C       1.801867   -1.805023    2.531484
O       1.864139   -2.415048    1.422965
O       2.218485   -2.067674    3.646714
H       0.880056    2.455902   -0.151834
H      -0.442134    2.103310   -1.288563
H      -0.802299    2.576062    0.375233
H      -1.098556    0.127060    0.129442
H       1.798893    0.181689   -0.857149
H       1.121795   -1.281930   -0.073082
