16

C      -0.038896    1.540086    0.057677
C       0.043828    0.031534    0.013677
C       1.347839   -0.676851   -0.229267
C       0.707774   -0.724382    1.156826
O       1.256717    0.073130    2.167156
C       0.125674   -1.956945    1.603300
C      -0.340291   -3.000191    2.003246
C      -0.870974   -4.176112    2.444722
N      -1.321648   -5.179846    2.819694
H       0.840309    1.969290    0.541148
H      -0.109241    1.942464   -0.958184
H      -0.922607    1.868089    0.613454
H      -0.834448   -0.464697   -0.388126
H       1.362079   -1.583423   -0.822846
H       2.243444   -0.066723   -0.285793
H       2.032245   -0.378588    2.519198
