18

O      -0.012309    1.364602    0.027537
C       0.011254   -0.037880    0.038032
C      -0.266987   -0.680310    1.363367
C       1.126106   -0.737742    0.776647
O       1.569409   -1.972922    0.295933
C       1.751740   -2.039502   -1.109790
C       0.494762   -1.674965   -1.878847
N      -0.769565   -2.102325   -1.261757
C      -0.414420   -0.672669   -1.263049
H       0.691826    1.671303   -0.555230
H      -0.427892   -0.011241    2.200608
H      -0.831238   -1.604782    1.356829
H       1.901424   -0.119656    1.228420
H       2.572880   -1.379039   -1.437592
H       2.048401   -3.072799   -1.315776
H       0.590045   -1.706732   -2.962260
H      -1.470313   -2.281670   -1.975455
H      -0.977358   -0.000948   -1.906019
