18

O      -0.047884    1.431382   -0.235321
C       0.018630    0.057976   -0.088373
C       0.602565   -0.884191   -1.150595
C      -0.576580   -1.875694   -0.878004
C      -1.146377   -0.899676    0.158588
C      -0.140427   -0.607929    1.252367
C       0.822481   -1.624332    1.856626
C       0.171648   -2.485925    2.844769
N      -0.357363   -3.154219    3.625160
H       0.743008    1.823962    0.150678
H       0.534961   -0.437235   -2.144285
H       1.625604   -1.245834   -0.998934
H      -1.226035   -1.993286   -1.746923
H      -0.311783   -2.872152   -0.511649
H      -2.196370   -0.679921    0.305693
H      -0.546769    0.084445    1.985607
H       1.263155   -2.261690    1.083939
H       1.658022   -1.110496    2.347100
