16

C      -0.180274    1.491374   -0.079330
C       0.151268    0.025559    0.025713
N       1.347910   -0.385191    0.063467
N      -1.015432   -0.782083    0.073422
C      -1.052738   -2.143047    0.168427
O      -0.112910   -2.896195    0.228207
O      -2.373282   -2.530421    0.185623
C      -2.637588   -3.875441    0.277840
N      -3.841828   -4.233454    0.293921
H       0.748189    2.059041   -0.112131
H      -0.761829    1.699223   -0.984961
H      -0.774973    1.822707    0.779814
H       1.389496   -1.402166    0.134936
H      -1.914131   -0.325440    0.034742
H      -1.731729   -4.479463    0.326830
H      -3.899344   -5.248153    0.364483
