17

N      -0.166734    1.275553   -0.108775
C       0.069505   -0.047488    0.065681
O       1.121933   -0.551691    0.367377
O      -1.098927   -0.737281   -0.179527
C      -1.046553   -2.104620   -0.080429
N      -2.098776   -2.757554   -0.289433
C      -2.032776   -4.174054   -0.185462
C      -3.261670   -4.880840    0.340170
C      -2.913953   -4.971742   -1.119910
H       0.561695    1.918845    0.144127
H      -1.104363    1.609264   -0.246400
H      -0.057588   -2.485871    0.178828
H      -1.065542   -4.609340    0.071928
H      -3.111517   -5.750945    0.969250
H      -4.095871   -4.249248    0.620805
H      -3.515168   -4.401009   -1.817295
H      -2.521640   -5.905132   -1.507507
