16

C       0.022549    1.378997   -0.023934
C       0.210659   -0.115306    0.053196
C       1.519132   -0.764566   -0.096580
C       0.885111   -0.790470    1.307537
C       1.480700    0.057929    2.362934
O       2.176849    1.029426    2.175009
C       0.255908   -2.061648    1.737733
O      -0.206064   -2.885945    0.983456
H       0.881701    1.913006    0.384461
H      -0.099959    1.670493   -1.072925
H      -0.875199    1.695186    0.516107
H      -0.636345   -0.717510   -0.265323
H       1.568717   -1.735253   -0.577015
H       2.398901   -0.133259   -0.165307
H       1.238934   -0.270169    3.399500
H       0.227327   -2.218255    2.839541
