14

C      -0.060686    1.430727    0.016622
C       0.006737   -0.019124    0.001015
C       0.066221   -1.222561   -0.013143
C       0.122094   -2.630789   -0.028959
N       1.178675   -3.396500   -0.070921
C       0.617912   -4.650739   -0.068278
N       1.390831   -5.777541   -0.164878
N      -0.697620   -4.675369   -0.018783
O      -1.035049   -3.311519    0.000037
H       0.941145    1.870093   -0.026350
H      -0.632162    1.804452   -0.839792
H      -0.550036    1.789829    0.928388
H       2.330608   -5.662376    0.181921
H       0.940685   -6.630700    0.130160
