19

C       0.030710    1.580807   -0.007143
C       0.009758    0.050064    0.009775
C      -1.409727   -0.527391    0.011020
C      -1.431074   -2.058509    0.032756
C      -2.860502   -2.626820   -0.015511
O      -3.584477   -2.231613   -1.167464
C      -2.838437   -4.100030    0.111907
N      -2.800576   -5.253049    0.180219
H       1.055353    1.964736   -0.011229
H      -0.476545    1.973676   -0.895088
H      -0.476142    1.993583    0.872068
H       0.555873   -0.334383   -0.861829
H       0.552324   -0.315417    0.891583
H      -1.958071   -0.146400    0.883814
H      -1.957655   -0.174182   -0.869896
H      -0.866772   -2.462101   -0.818917
H      -0.937554   -2.437576    0.935823
H      -3.434224   -2.229005    0.829732
H      -3.149747   -2.610611   -1.940525
