25

C       0.177640    1.563841    0.335120
C       0.016681    0.060257    0.047166
C       0.646823   -0.741180    1.202320
C      -1.484603   -0.273744   -0.046364
C       0.693573   -0.368160   -1.270489
C       0.355539    0.325063   -2.623613
C       1.819044    0.102841   -3.047986
O       2.373577    1.174095   -3.776732
C       2.196543   -0.071583   -1.551168
H       1.229035    1.851494    0.433250
H      -0.268986    2.181374   -0.450286
H      -0.320307    1.822255    1.275957
H       0.173632   -0.490446    2.158137
H       0.531151   -1.819626    1.046035
H       1.717390   -0.529494    1.295512
H      -1.965170    0.279513   -0.860268
H      -1.642358   -1.342610   -0.229358
H      -2.003049   -0.014821    0.883449
H       0.527461   -1.447066   -1.383858
H      -0.433216   -0.099468   -3.248374
H       0.178888    1.397429   -2.502106
H       1.931301   -0.846864   -3.591390
H       3.286998    0.955438   -3.987269
H       2.506419    0.894642   -1.142766
H       2.935499   -0.831482   -1.283822
