15

O      -0.021485    0.144175    0.620256
C      -0.032526    1.220544    0.099840
O      -1.205578    1.808688   -0.250108
C      -1.161926    3.115533   -0.838971
O      -0.275170    3.957710   -0.179789
C       1.059117    3.533581   -0.390259
C       1.937946    3.656203    0.860323
O       2.041711    2.215619    0.979347
C       1.240720    2.012656   -0.200692
H      -0.909666    3.015886   -1.906247
H      -2.166002    3.524402   -0.725348
H       1.455528    3.957278   -1.319488
H       2.917032    4.122749    0.709625
H       1.429856    4.111137    1.716429
H       1.798028    1.489422   -0.987404
