21

C       0.000158    1.545203   -0.032227
C       1.301469    0.780996   -0.002769
C       2.157291    0.781198    1.251147
C       2.696617   -0.602286    1.567121
C       2.683091   -1.114909    2.986743
C       1.724117   -1.688458    1.958991
C       0.257465   -1.444423    2.049041
C      -0.484056   -0.709211    1.214644
C      -0.006729    0.027666    0.011355
H      -0.283493    2.074242    0.872549
H      -0.305730    2.035224   -0.950371
H       1.857846    0.738863   -0.935893
H       2.982847    1.496425    1.147693
H       1.555976    1.132862    2.095394
H       3.531117   -0.920177    0.946956
H       3.500468   -1.738597    3.332554
H       2.270235   -0.457763    3.746130
H       1.978367   -2.694533    1.628054
H      -0.249611   -1.946613    2.873243
H      -1.556356   -0.650984    1.402827
H      -0.293761   -0.441729   -0.928661
