11

F       0.361173    0.121035    0.120434
C      -0.027907    1.400273    0.006438
F       1.075021    2.118799   -0.254423
F      -0.837421    1.489628   -1.058611
C      -0.716004    1.876781    1.236014
C      -1.983097    2.351121    1.352470
O      -2.237271    2.679909    2.620180
N      -1.107112    2.421882    3.396562
C      -0.215552    1.947720    2.566536
H      -2.780624    2.502729    0.642777
H       0.760520    1.668491    2.936181
