17

O       0.054868    1.398858    0.016752
C      -0.027600    0.020999   -0.007475
C       0.265410   -0.719156   -1.366637
C      -0.931227   -1.628873   -1.087384
C      -0.920743   -2.128166    0.347640
C       0.368226   -2.109122    1.160807
C       0.806224   -0.648558    1.072603
O       1.624997   -0.061189    1.737064
C      -1.400105   -0.727035    0.039638
H       0.734464    1.608742    0.677900
H       0.050823   -0.016418   -2.174709
H       1.255083   -1.164328   -1.522820
H      -1.527578   -2.130481   -1.839838
H      -1.666423   -2.878832    0.581646
H       0.193245   -2.371752    2.209074
H       1.157877   -2.772144    0.789678
H      -2.367463   -0.304239    0.273161
