18

O      -0.008570    1.315681    0.376363
C      -0.038510   -0.021435   -0.108240
C      -1.449515   -0.510592   -0.057408
N      -2.074593   -1.021606    1.184915
C      -1.854904   -1.930445    0.033929
C      -2.989907   -1.922820   -1.017563
C      -3.819535   -0.663512   -0.682699
C      -2.476148   -0.046179   -1.123954
O      -2.351543   -1.147212   -2.098259
H       0.860338    1.682954    0.188489
H       0.314187   -0.078667   -1.149454
H       0.605073   -0.682290    0.496718
H      -1.339982   -1.181589    1.874202
H      -1.153255   -2.753549    0.104121
H      -3.414882   -2.870733   -1.344647
H      -4.587169   -0.497171   -1.437360
H      -4.178563   -0.505235    0.331372
H      -2.361495    0.946993   -1.554824
