17

N       0.036020    1.349696   -0.157701
C      -0.037657   -0.021735   -0.010380
N      -1.175592   -0.597563    0.017494
C      -1.195659   -2.066324    0.048966
C       0.134772   -2.683439   -0.414253
O       1.213527   -2.092792    0.287126
C       1.312416   -0.719728    0.004346
C      -1.568688   -2.540409    1.385686
C      -1.870493   -2.947495    2.475134
H       0.815781    1.814605    0.282968
H      -0.850012    1.816988   -0.021628
H      -1.977633   -2.391014   -0.652371
H       0.170341   -3.754219   -0.203808
H       0.246926   -2.528170   -1.499863
H       1.803565   -0.544272   -0.969224
H       1.953516   -0.280900    0.777900
H      -2.139369   -3.300590    3.439681
