16

C      -0.021511    1.491478   -0.009365
C       0.014314   -0.009376   -0.060577
N       0.024247   -0.618604   -1.209834
C       0.056897   -1.997003   -1.183820
N       0.112937   -2.557965   -2.430498
C       0.068786   -2.739997   -0.025366
C       0.059758   -2.092315    1.249017
O       0.068893   -2.584540    2.364040
N       0.034279   -0.670988    1.119695
H       0.858157    1.883507    0.512653
H      -0.039065    1.884531   -1.024968
H      -0.909000    1.842247    0.528510
H      -0.140784   -1.950563   -3.192828
H      -0.121257   -3.531064   -2.532574
H       0.091893   -3.822049   -0.038963
H       0.024709   -0.167521    1.996258
