18

C       0.334662    1.511197   -0.514898
N       0.075801    0.129243   -0.123974
C       1.224773   -0.748172    0.042223
C       0.442004   -0.315342    1.236948
C       1.034879    0.573490    2.257724
C       0.536586    0.822597    3.514106
N       1.425988    1.694759    4.101031
C       2.409762    1.938653    3.191826
N       2.210051    1.280121    2.074952
H       1.269011    1.926023   -0.116001
H       0.367186    1.554814   -1.608599
H      -0.497465    2.138397   -0.177565
H       1.116761   -1.758710   -0.345458
H       2.218314   -0.314869   -0.055834
H      -0.289549   -1.006738    1.651246
H      -0.340645    0.467927    4.028885
H       1.363400    2.071333    5.031793
H       3.240464    2.596028    3.401151
