18

C      -0.032016    1.556492   -0.042567
C       0.015510    0.030764    0.009797
O      -1.307341   -0.516378    0.078430
C       0.642167   -0.534639   -1.265919
N       0.938689   -1.951627   -1.142524
C       1.450823   -2.423184    0.015559
C       1.444355   -1.725024    1.183857
C       0.752888   -0.461655    1.290265
O       0.612105    0.166149    2.331387
H       0.965530    1.984733   -0.183648
H      -0.680469    1.884145   -0.860358
H      -0.420887    1.935634    0.904725
H      -1.664593   -0.268968    0.939690
H      -0.050584   -0.384242   -2.098582
H       1.566246    0.025723   -1.475205
H       1.094463   -2.475714   -1.986268
H       1.862898   -3.427087   -0.035658
H       1.861164   -2.159342    2.083168
