18

C       0.064483    1.537914   -0.088746
C      -0.024584    0.009953   -0.042346
O      -1.389004   -0.399556    0.066907
C       0.831316   -0.611119   -1.153948
C       1.548778   -1.622736   -0.616512
C       2.908297   -1.259125   -0.040380
N       2.148438   -1.090774    1.292109
C       1.073803   -1.988447    0.790905
C       0.664754   -0.640996    1.184507
H       1.102352    1.883939   -0.075215
H      -0.415832    1.925744   -0.993695
H      -0.453667    1.956497    0.779002
H      -1.781271   -0.317033   -0.808524
H       1.272880    0.048390   -1.897821
H       3.625134   -2.064410    0.141849
H       3.408137   -0.373661   -0.442380
H       0.844289   -2.953451    1.225481
H       0.304034   -0.406045    2.181549
