22

C      -0.185433    1.512729   -0.057121
C      -0.061761   -0.013391   -0.019584
C      -1.385559   -0.674495   -0.389790
C       1.200023   -0.520677   -0.792191
C       1.972798   -0.555067    0.552293
C       0.613428   -0.516794    1.298392
N       2.876499   -1.650654    0.807876
C       4.178074   -1.489518    1.172972
O       4.739158   -0.425701    1.328445
H       0.755718    2.006428    0.206042
H      -0.471967    1.856402   -1.057571
H      -0.950268    1.859575    0.647036
H      -1.703548   -0.384278   -1.398088
H      -1.307275   -1.766769   -0.365830
H      -2.181352   -0.381167    0.304962
H       1.047068   -1.529973   -1.190122
H       1.601867    0.111366   -1.588599
H       2.553818    0.352752    0.713645
H       0.542924    0.118379    2.185414
H       0.274813   -1.524860    1.562140
H       2.528993   -2.592556    0.711894
H       4.684825   -2.465083    1.316681
