17

O       0.059232    1.406322    0.061102
C      -0.008790    0.014740    0.004139
C      -1.425082   -0.684470   -0.063256
C      -2.317721    0.179815   -0.983169
C      -1.704880    0.199992   -2.395917
O      -0.269003    0.251494   -2.371219
C       0.287911   -0.626779   -1.391588
C      -0.716598   -1.724920   -0.940496
O      -0.761952   -2.912972   -1.065821
H       0.033770    1.709821   -0.858144
H       0.605906   -0.410019    0.801983
H      -1.919688   -1.002295    0.854479
H      -3.331142   -0.228350   -1.038219
H      -2.376800    1.186587   -0.559245
H      -2.009356   -0.705675   -2.939451
H      -2.026782    1.068479   -2.975087
H       1.302567   -0.884799   -1.695538
