17

C       0.007699    1.594782    0.127534
N       0.004036    0.147498    0.147480
C      -1.037917   -0.570306    0.916024
C      -1.510558   -1.838242    0.184948
O      -0.366846   -2.582327    0.695926
C       0.043803   -1.494585    1.521421
C       1.093428   -0.534285    0.883695
C       2.158947   -1.101972    0.061104
N       3.012835   -1.545135   -0.578546
H       0.873173    1.948168   -0.441385
H      -0.893282    1.955478   -0.377779
H       0.047651    2.051798    1.133867
H      -1.745113    0.043936    1.476117
H      -2.449109   -2.268927    0.554175
H      -1.515450   -1.778095   -0.906727
H       0.187738   -1.769388    2.567231
H       1.544460    0.099560    1.664665
