23

C      -0.118388    1.492360    0.177863
C      -0.012898   -0.034145    0.070510
C       0.502790   -0.456301   -1.311456
C       0.883621   -0.591346    1.195356
O       0.398858   -0.159065    2.472384
C       0.225379   -1.264815    3.364593
C      -1.188288   -1.251024    3.946335
C       0.554954   -2.471057    2.526269
C       0.927066   -2.093684    1.309596
H       0.859632    1.962823    0.017541
H      -0.805513    1.889392   -0.576481
H      -0.476354    1.787072    1.166364
H      -1.012427   -0.463820    0.220490
H       1.530370   -0.107819   -1.471980
H       0.492281   -1.542383   -1.444393
H      -0.116969   -0.021583   -2.101992
H       1.900517   -0.182844    1.045800
H       0.945451   -1.163964    4.195521
H      -1.929546   -1.375423    3.151630
H      -1.313762   -2.059319    4.674772
H      -1.376357   -0.300466    4.453503
H       0.493037   -3.484059    2.904381
H       1.235770   -2.740984    0.499256
