16

C      -0.041993    1.406506    0.132270
N      -0.021102   -0.032184    0.026852
C      -1.197622   -0.805682   -0.324520
C      -0.743727   -2.265699   -0.106980
C       0.781368   -2.206831   -0.281650
C       1.146420   -0.753621    0.028489
O       2.256269   -0.300475    0.220109
H       0.972549    1.734553    0.365470
H      -0.363260    1.874127   -0.808389
H      -0.723280    1.733473    0.926954
H      -2.049029   -0.531585    0.309278
H      -1.495592   -0.619118   -1.368541
H      -0.992779   -2.576948    0.911669
H      -1.237649   -2.955195   -0.794230
H       1.337132   -2.887584    0.365294
H       1.089233   -2.414903   -1.313152
