20

C      -0.067899    1.536532    0.004361
C       0.055191    0.035627    0.012308
C       1.026352   -0.761774   -0.902348
C       0.678623   -1.920852    0.091933
C       1.449926   -3.208419    0.212030
C       0.643055   -0.795823    1.197073
C      -0.842676   -2.029949   -0.133526
O      -1.552415   -3.004593   -0.120286
N      -1.205135   -0.693205   -0.297986
H       0.903660    1.999847    0.198276
H      -0.432431    1.892312   -0.964628
H      -0.763384    1.882450    0.777872
H       0.743322   -0.875025   -1.951545
H       2.065189   -0.435365   -0.805861
H       2.503802   -3.021681    0.440344
H       1.029080   -3.836742    1.003010
H       1.397397   -3.780529   -0.719900
H       1.645285   -0.480372    1.501224
H       0.006032   -0.952447    2.072700
H      -2.088293   -0.380133    0.081932
