22

C      -0.305087    1.521316   -0.035014
C      -0.009160    0.013681   -0.015228
C       0.760356   -0.463860   -1.258238
C       2.141124    0.150618   -1.446533
O       3.117251   -0.196458   -0.454129
C       2.955187    0.237055    0.829548
N       1.959538    0.202739    1.600143
C       0.694261   -0.460067    1.280068
C      -0.212359   -0.353851    2.511558
H       0.598380    2.120307    0.109220
H      -0.757227    1.815413   -0.988337
H      -1.005060    1.795205    0.758931
H      -0.974406   -0.509794   -0.033847
H       0.863811   -1.555739   -1.226563
H       0.181080   -0.228393   -2.160729
H       2.579765   -0.199139   -2.384698
H       2.074519    1.244501   -1.498420
H       3.903839    0.621574    1.209531
H       0.921950   -1.527491    1.128611
H      -0.446341    0.689784    2.740606
H      -1.150727   -0.897332    2.359343
H       0.294632   -0.773501    3.384090
