19

O      -0.155810    1.381133    0.442045
C      -0.054460    0.013197    0.114472
C      -1.424060   -0.602110   -0.163117
O      -2.248231   -0.629441    0.989084
C      -3.296701    0.315795    0.809114
C      -3.402372    0.400498   -0.695608
C      -4.528001   -0.179366   -1.503697
C      -4.271357    1.322522   -1.473688
O      -2.074258    0.211624   -1.135933
H      -0.654762    1.783994   -0.278810
H       0.590103   -0.157880   -0.763482
H       0.393798   -0.499211    0.970629
H      -1.320785   -1.635631   -0.529587
H      -4.200992   -0.063107    1.292491
H      -3.023650    1.284658    1.249797
H      -4.261059   -0.706108   -2.412803
H      -5.398144   -0.567741   -0.984661
H      -4.962495    1.960051   -0.932021
H      -3.842955    1.772385   -2.362332
