17

C       0.038045    1.632549   -0.015103
C      -0.090293    0.100102   -0.085107
C       0.601898   -0.488841   -1.223606
C       1.178737   -0.972371   -2.166598
C       1.862384   -1.623796   -3.273781
O       2.008921   -2.818607   -3.353475
N       2.316802   -0.694774   -4.213192
C       3.011856   -0.913380   -5.399571
N       3.358958   -2.052341   -5.831832
H       1.086308    1.932086    0.065599
H      -0.381690    2.100175   -0.909793
H      -0.497776    2.016472    0.857332
H       0.299627   -0.350111    0.836527
H      -1.149443   -0.183601   -0.132527
H       2.108452    0.267174   -3.995729
H       3.210034    0.044500   -5.898220
H       3.852741   -1.944063   -6.716642
