13

C      -0.032443    1.548123   -0.027533
C       0.033490    0.022903    0.017958
O       0.782614   -0.470125   -1.099639
C       1.835374   -1.241727   -0.667065
O       2.605870   -1.764450   -1.420512
C       1.785464   -1.264171    0.816595
C       0.744483   -0.539516    1.218687
H       0.971007    1.976461    0.042603
H      -0.489225    1.875076   -0.964690
H      -0.635713    1.925882    0.803803
H      -0.982465   -0.390297   -0.057169
H       2.512310   -1.803015    1.406067
H       0.418581   -0.346413    2.232871
