14

C      -0.061071    1.553594   -0.007974
C       1.450260    1.885648   -0.028723
O       2.173848    1.448526    1.116154
C       2.259905    0.642831   -0.084085
C       1.266815   -0.456665   -0.080890
C      -0.003807    0.054777   -0.005259
N      -0.785365   -1.035126    0.077164
N      -0.027631   -2.172049    0.026528
N       1.223885   -1.810318   -0.061868
H      -0.543894    1.977708    0.878738
H      -0.564512    1.963016   -0.891421
H       1.776045    2.828958   -0.459186
H       3.241650    0.575183   -0.538593
H      -1.786440   -1.127443    0.141548
