14

C      -0.003653    1.444870    0.115089
N      -0.048056    0.017997   -0.092058
C       0.594011   -0.611432   -1.109556
C       1.225893   -0.023053   -2.163834
O       1.806765   -0.729496   -3.147117
N       1.788653   -2.161016   -3.107512
N       1.242319   -2.721950   -2.151607
C       0.607301   -2.064158   -1.060477
O       0.118974   -2.708346   -0.153641
H       1.022526    1.818545    0.250013
H      -0.450259    1.978861   -0.733532
H      -0.580508    1.693651    1.006843
H      -0.318507   -0.599200    0.658906
H       1.319453    1.044881   -2.321703
