14

C      -0.032407    1.587194    0.054744
C       0.022298    0.090607    0.013502
C      -0.902612   -0.844925    0.796274
C       0.577381   -0.959358    0.971887
O       1.119995   -1.740518   -0.125886
C       0.709565   -0.761475   -1.033908
O       0.929915   -0.719597   -2.195918
C       1.333169   -0.826335    2.169198
N       1.925821   -0.699283    3.154312
H       0.940024    2.024492   -0.186753
H      -0.762696    1.959194   -0.670477
H      -0.331936    1.937645    1.046243
H      -1.448181   -0.355543    1.597489
H      -1.418445   -1.665087    0.307774
