14

O       0.023468   -0.026546    0.109766
C      -0.022343    1.180204    0.123482
C      -1.280701    2.058114    0.111137
C      -0.755749    3.464367    0.480079
C       0.726423    3.438522    0.002970
N       1.052844    2.033850    0.138213
C      -1.520006    4.569088   -0.086098
N      -2.123798    5.442819   -0.541559
H      -1.704652    2.039081   -0.898015
H      -2.035077    1.676990    0.799365
H      -0.762238    3.569273    1.570024
H       0.807486    3.792414   -1.033476
H       1.361882    4.069296    0.630084
H       1.983539    1.672095    0.000564
