11

C      -0.035226    1.467085    0.014830
N       0.044948    0.011683   -0.017594
C       0.696935   -0.531594    1.166300
C       0.719681   -1.996790    1.134783
N       0.717567   -3.151631    1.123937
H       0.975149    1.888876   -0.031147
H      -0.582457    1.815858   -0.864351
H      -0.527940    1.873868    0.915702
H      -0.883384   -0.387825   -0.103575
H       1.733476   -0.171281    1.193767
H       0.235271   -0.219636    2.122316
