19

C       0.261475    1.721620   -0.062884
C       0.149971    0.271828    0.004642
C       0.045008   -0.927572    0.066380
C      -0.057012   -2.372632    0.118173
C      -0.024350   -3.056136    1.546493
C      -1.162092   -4.000479    1.083736
C      -1.441692   -3.055781   -0.113897
C       1.047673   -2.992812   -0.731743
O       0.899075   -3.921267   -1.482016
H       0.766709    2.039596   -0.981489
H      -0.726132    2.195620   -0.047132
H       0.832551    2.117304    0.784276
H       0.926161   -3.501598    1.853019
H      -0.341583   -2.342441    2.309135
H      -0.784771   -4.971175    0.755527
H      -1.977727   -4.161099    1.790760
H      -2.258856   -2.358186    0.076087
H      -1.564404   -3.517060   -1.094335
H       2.042957   -2.521071   -0.576721
