18

C      -0.373323    1.357599    0.264130
C      -0.043401   -0.085923   -0.019556
C       0.715393   -0.533927   -1.254285
C       1.317383    0.398557   -2.237108
C       2.553080    0.864445   -2.043924
C       3.353812    0.491699   -0.812100
C       2.398695    0.286038    0.361429
O       2.533992    0.810020    1.442572
N       1.333122   -0.568389    0.063471
H       0.264655    2.036363   -0.307184
H      -1.416589    1.558860    0.002084
H      -0.232368    1.577523    1.326275
H      -0.764990   -0.801303    0.372618
H       0.442805   -1.513866   -1.649923
H       0.749553    0.647173   -3.128761
H       3.014226    1.534498   -2.763959
H       3.931449   -0.425038   -0.993156
H       4.063939    1.272895   -0.533875
