20

C      -0.129330    1.530707    0.379369
C       0.029595    0.033366    0.227573
N       1.280680   -0.605166   -0.217777
C       2.446210    0.198271   -0.553740
C       0.873644   -0.752085    1.164509
C       1.656227   -0.292166    2.429098
C       1.345305   -1.675751    3.029851
O      -0.076596   -1.829519    3.046867
C       0.622710   -2.102182    1.820174
H       0.711257    1.994008    0.900986
H      -0.235832    2.018774   -0.595850
H      -1.034158    1.745295    0.957360
H      -0.852152   -0.457649   -0.184520
H       2.612654    1.076707    0.086301
H       3.338598   -0.433744   -0.495091
H       2.351609    0.544576   -1.587732
H       2.721927   -0.146846    2.228827
H       1.267379    0.560802    2.990803
H       1.920141   -2.247060    3.748913
H       0.490096   -3.074724    1.361192
