18

C      -0.109182    1.644022   -0.121341
C      -0.004430    0.121057   -0.003725
C       0.525067   -0.523105   -1.279123
O       1.912915   -0.206919   -1.501023
C       2.782829   -0.557570   -0.517434
O       3.955338   -0.656120   -0.747678
C       2.183897   -0.771828    0.844777
C       1.893431    0.443260    1.663395
N       0.804731   -0.369879    1.140629
H       0.820866    2.096317   -0.476361
H      -0.895227    1.900431   -0.838359
H      -0.371817    2.091839    0.840915
H      -1.015658   -0.273333    0.158593
H       0.411437   -1.612603   -1.232090
H      -0.001891   -0.159135   -2.163879
H       2.538721   -1.672646    1.337261
H       2.029057    0.403366    2.740659
H       2.109102    1.408965    1.215568
