21

C       0.057249    1.525645    0.031677
C       0.000578    0.002611   -0.013674
C       0.731567   -0.589195   -1.212739
C       0.609691   -2.104503   -1.317447
O       1.285427   -2.505811   -2.499963
O       0.642073   -0.542582    1.173019
C      -0.103099   -0.623751    2.295459
C       0.709212   -1.205939    3.428548
O      -1.256223   -0.279058    2.370407
H       1.094557    1.872376    0.073987
H      -0.410055    1.945841   -0.864179
H      -0.480063    1.900346    0.905420
H      -1.044114   -0.323714    0.002999
H       0.321985   -0.142153   -2.125478
H       1.792268   -0.316582   -1.170598
H       1.048298   -2.573182   -0.424880
H      -0.455399   -2.388968   -1.350167
H       1.256106   -3.465390   -2.551472
H       1.584016   -0.578753    3.622305
H       0.091027   -1.269177    4.323160
H       1.076949   -2.199400    3.156670
