19

O      -0.211888    1.545885    0.003369
C      -0.034536    0.145550    0.003207
C      -1.398189   -0.526014    0.012980
O      -2.072547   -0.164103    1.204562
C      -3.490976   -0.140031    1.069094
C      -3.962794   -1.196665    0.031688
C      -3.506376   -0.139080   -1.011634
C      -3.868396    0.952261    0.031970
O      -2.090119   -0.163123   -1.168215
H       0.657202    1.955745    0.005873
H       0.500920   -0.205117   -0.892307
H       0.512717   -0.204028    0.891927
H      -1.245847   -1.620158    0.011377
H      -3.903753   -0.124456    2.078711
H      -3.500693   -2.186022    0.027795
H      -5.049959   -1.298403    0.039664
H      -3.934122   -0.122559   -2.014986
H      -4.935007    1.191358    0.039927
H      -3.254460    1.853576    0.027885
