17

O       0.006001    1.279713   -0.131707
C      -0.045317   -0.137164    0.017060
C       0.522512   -0.604942    1.371471
C      -0.708554   -0.651523    2.250969
C      -1.833377   -0.633527    1.536656
C      -1.549988   -0.588790    0.042141
O      -2.392193    0.276352   -0.686523
C      -1.710885   -1.982303   -0.567493
O      -0.921712   -2.879850   -0.420243
H      -0.239353    1.669450    0.716970
H       0.489227   -0.543988   -0.842243
H       0.970038   -1.600012    1.274918
H       1.305376    0.073050    1.730149
H      -0.654829   -0.720652    3.331852
H      -2.846429   -0.680093    1.917435
H      -1.880193    1.090911   -0.803122
H      -2.632026   -2.090825   -1.180468
