23

C       0.311836    1.465870   -0.375057
C      -0.035519    0.025338    0.014037
C      -1.537528   -0.205746   -0.146137
C       0.921372   -0.987788   -0.659545
O       1.705133   -1.123372    0.545548
C       0.666491   -0.458219    1.337218
C       1.256902    0.564677    2.294128
C      -0.057774   -1.567282    2.119539
O       0.873290   -2.287530    2.905302
H       1.389544    1.646415   -0.351251
H      -0.036426    1.669330   -1.393887
H      -0.170037    2.190140    0.290045
H      -1.846322    0.025228   -1.171883
H      -1.835111   -1.236479    0.059495
H      -2.110605    0.450276    0.518816
H       0.449987   -1.935809   -0.952789
H       1.524676   -0.616370   -1.495545
H       1.967643    1.223845    1.794097
H       0.461288    1.175664    2.734882
H       1.771175    0.043704    3.105593
H      -0.802378   -1.145487    2.803283
H      -0.580254   -2.243165    1.428104
H       1.586525   -2.520167    2.295318
