16

C      -0.016353    1.521775   -0.040336
C       1.414130    2.072609    0.023888
C       2.105454    1.652774    1.329969
C       1.860930    0.201678    1.658110
C       0.929683   -0.542509    1.061878
C      -0.016019   -0.013533    0.013580
H      -0.589022    1.911577    0.811404
H      -0.524814    1.868919   -0.946321
H       1.986885    1.682775   -0.827779
H       1.413585    3.163897   -0.070668
H       3.184920    1.839784    1.263487
H       1.753720    2.280851    2.162673
H       2.493702   -0.241780    2.423916
H       0.825230   -1.590908    1.332935
H      -1.030022   -0.385171    0.209392
H       0.258667   -0.426334   -0.969136
