14

O       0.014929    1.330940    0.088611
C       0.013176   -0.072901   -0.012089
C      -1.425126   -0.562256   -0.133412
C      -1.385084   -0.456410   -1.647711
C       0.172252   -0.594819   -1.475100
O       0.072353   -2.039211   -1.324818
C      -1.308737   -1.819497   -1.029864
C      -2.234603   -2.902470   -1.010142
N      -3.000220   -3.769242   -0.991534
H       0.930698    1.628546    0.082947
H       0.662240   -0.551383    0.732510
H      -2.257111   -0.406207    0.539814
H      -2.048299   -0.027851   -2.384307
H       0.964372   -0.270011   -2.145761
