18

C       0.144406    1.496046   -0.024102
C       0.054950    0.010508    0.077933
C      -0.941585   -0.809490    0.830654
C       0.542241   -1.021817    1.072369
C       1.163097   -1.726797   -0.144238
C       0.808720   -3.169841   -0.472121
O       0.543280   -0.762373   -1.043370
C       2.625780   -1.534970   -0.165389
N       3.772896   -1.395820   -0.163635
H       1.169437    1.812183   -0.237923
H      -0.502751    1.862389   -0.828674
H      -0.181153    1.961709    0.910278
H      -1.442322   -0.302846    1.650186
H      -1.546150   -1.547982    0.313210
H       1.018349   -0.914510    2.036910
H      -0.270552   -3.317301   -0.403466
H       1.133045   -3.413414   -1.487482
H       1.307584   -3.850419    0.223758
