23

C      -0.110623    1.544912    0.063958
C      -0.051322    0.046965   -0.240866
C      -1.360053   -0.663603    0.079807
O      -2.441677   -0.186337   -0.719022
C      -2.829385   -1.235109   -1.592305
C      -2.420986   -2.507239   -0.832723
C      -3.473982   -2.913148    0.206168
C      -2.034449   -3.669865   -1.737514
O      -1.227488   -2.046651   -0.176633
H       0.834758    2.034455   -0.186581
H      -0.908034    2.023720   -0.511084
H      -0.308023    1.727201    1.126392
H       0.175908   -0.126865   -1.298861
H       0.741881   -0.436721    0.341178
H      -1.641859   -0.489816    1.132296
H      -3.905613   -1.156309   -1.770426
H      -2.302283   -1.169886   -2.555761
H      -4.364424   -3.324172   -0.280786
H      -3.065379   -3.673612    0.877524
H      -3.781801   -2.050992    0.804808
H      -1.235306   -3.372529   -2.421586
H      -1.680335   -4.516384   -1.142282
H      -2.894992   -4.004763   -2.325451
