19

C      -0.068123    1.543744    0.003650
C      -0.043910    0.031604    0.030563
C       1.275408   -0.723928   -0.172759
C       0.651169   -0.698022    1.170138
C       1.185943   -0.094425    2.466178
O       0.733941   -1.245962    3.209982
C       0.163641   -1.860957    2.036040
C      -1.237744   -0.645386   -0.533898
O      -2.209442   -0.074613   -0.965074
H       0.851520    1.963352    0.420870
H      -0.176885    1.907033   -1.022116
H      -0.915711    1.929493    0.577503
H       1.244120   -1.651695   -0.737665
H       2.156476   -0.115942   -0.352336
H       2.274624    0.032708    2.521759
H       0.696749    0.828952    2.801833
H      -0.923831   -1.978572    2.125107
H       0.615462   -2.837866    1.820873
H      -1.176496   -1.759521   -0.541948
