13

N       0.025790    1.377466    0.154537
C      -0.063792    0.009135    0.053168
C      -1.201470   -0.723930    0.027919
N      -1.103981   -2.114901   -0.015903
C       0.112555   -2.683706   -0.029702
F       0.062216   -4.007970   -0.060178
N       1.239660   -2.083726   -0.020798
C       1.252239   -0.691831    0.006680
O       2.283420   -0.041880   -0.015653
H       0.960754    1.700544   -0.063679
H      -0.723468    1.933042   -0.226238
H      -2.204111   -0.320269    0.046665
H      -1.926338   -2.696189   -0.032299
