16

N       1.091920   -0.273497    0.248603
C      -0.005945    0.136257   -0.212849
O      -1.044548   -0.687821   -0.488186
C      -0.844609   -2.083592   -0.232434
C      -1.011489   -2.375875    1.201836
N      -1.171853   -2.643015    2.313900
C      -1.852712   -2.873673   -1.056422
C      -3.210381   -2.344934   -1.313858
N      -2.212680   -2.428837   -2.401241
H       1.745702    0.493559    0.383471
H      -0.299416    1.159696   -0.458807
H       0.179659   -2.350086   -0.514206
H      -1.707358   -3.946243   -0.954652
H      -4.046010   -3.031892   -1.402024
H      -3.453830   -1.365027   -0.915941
H      -1.826647   -1.500905   -2.561541
