13

C      -0.012019    1.499083    0.057086
C       0.013771    0.011404   -0.003440
C       0.000502   -0.840499   -1.074734
O      -0.045424   -0.495167   -2.373219
C      -0.007482   -1.468821   -3.360836
O      -0.054470   -1.155638   -4.502961
O       0.032880   -2.100280   -0.700657
N       0.073484   -2.021693    0.813766
N       0.059074   -0.812997    1.093884
H       0.878806    1.892541    0.556287
H      -0.047555    1.910203   -0.954176
H      -0.887882    1.859948    0.605007
H       0.067102   -2.484172   -2.952399
