16

O      -0.243863   -0.049899   -0.421633
C      -0.080928    1.095644   -0.147519
N      -1.014171    2.181935   -0.001207
C      -0.010367    2.951551    0.749869
C       0.954064    4.190528    0.679548
C       1.975384    3.028047    1.086161
O       1.586370    2.698679    2.398940
C       0.162761    2.554228    2.236138
C       1.087036    2.146488    0.091895
H      -1.964298    2.017282    0.314661
H       1.104681    4.593799   -0.320302
H       0.837260    4.983096    1.423030
H       3.056517    3.121911    1.006713
H      -0.368011    3.210511    2.934593
H      -0.127258    1.512601    2.423215
H       1.272100    2.540657   -0.911435
