14

O       0.675649    1.239045    0.133738
C       0.295449   -0.062167    0.062236
C       0.015496   -0.748030   -1.103146
N      -0.362834   -1.994568   -0.715432
N      -0.336413   -2.174398    0.610682
C       0.051955   -0.996930    1.100645
C       0.159681   -0.802924    2.589714
C       1.255138    0.104614    2.935394
N       2.107591    0.857896    3.143991
H       1.197141    1.382932    0.934099
H       0.060633   -0.443810   -2.135317
H      -0.635154   -2.762585   -1.304249
H      -0.765892   -0.387567    3.009505
H       0.320273   -1.772492    3.070593
