16

O      -0.033281    1.479162    0.068804
C       1.348876    1.779241   -0.002006
C       1.961134    0.943974   -1.178984
C       1.034661   -0.300381   -1.147803
C       0.036091    0.070057   -0.007551
C       1.165833   -0.407959    0.956672
C       2.096895    0.832634    0.999098
C       2.878964    0.178976   -0.179180
N       1.964461   -1.040597   -0.184522
H       1.516939    2.853614    0.042439
H       2.256287    1.408669   -2.117125
H       0.717270   -0.792829   -2.066534
H      -0.955809   -0.374802    0.031533
H       0.961569   -0.993179    1.852831
H       2.508904    1.201493    1.935771
H       3.957763    0.050382   -0.252996
