16

O      -0.061731    0.236538    0.519590
C       0.035250    1.378781    0.113732
C       1.266251    1.968570   -0.380477
C       1.478291    3.302870   -0.530626
C       1.413654    4.246160    0.654116
C       2.949621    3.926747    0.624916
C       3.461077    2.602338    0.019335
C       2.639071    1.327786   -0.204039
N       2.879485    3.641203   -0.843159
H      -0.846836    2.056019    0.089810
H       1.295605    5.309663    0.425980
H       0.786603    3.951438    1.495218
H       3.685113    4.640122    0.995561
H       4.548382    2.540174    0.001912
H       2.601418    0.629873    0.637552
H       3.040789    0.782778   -1.067928
