16

C       0.168781    1.260435    0.320714
C       1.421134    1.950908   -0.263860
C       2.094641    0.786953   -0.930532
O       3.144045    0.968779   -1.858114
C       3.786681   -0.233648   -1.873868
N       3.414979   -1.148024   -1.071097
C       2.299514   -0.608441   -0.325002
C       1.069237   -0.281362   -1.155744
O      -0.094599    0.088488   -0.469272
H       0.345828    0.964579    1.362912
H      -0.722790    1.891555    0.292325
H       1.158535    2.701269   -1.017171
H       2.019245    2.435164    0.512478
H       4.602638   -0.300144   -2.582269
H       2.216792   -0.886972    0.720346
H       0.888533   -0.786580   -2.098513
