11

F       0.087415    0.033573    0.001716
C      -0.071310    1.344887    0.011271
C      -1.247014    1.980677    0.030666
C      -1.214441    3.434535    0.038485
N      -2.270761    4.150568    0.056740
N       0.085532    4.060408    0.024450
N       1.155275    3.408716    0.006395
N       1.104027    2.041877   -0.000560
H      -2.187459    1.449692    0.040286
H      -2.002464    5.136810    0.058675
H       2.000186    1.582175   -0.015274
