15

N      -0.043391    1.269707    0.519099
C       0.037897    0.139664   -0.258860
O       1.041178   -0.133998   -0.889481
C      -1.220223   -0.673189   -0.271320
C      -1.594231   -1.647750   -1.369868
O      -0.564986   -2.114149   -2.215548
C       0.285514   -2.788730   -1.398812
N      -0.022888   -2.922634   -0.171059
C      -1.251432   -2.191911   -0.004055
H       0.821252    1.765215    0.671959
H      -0.759574    1.367448    1.218727
H      -2.092885   -0.172580    0.137868
H      -2.559233   -1.603565   -1.857216
H       1.174336   -3.170445   -1.882269
H      -1.955635   -2.566663    0.728302
