18

O      -0.195141    1.463425    0.392722
C      -0.010783    0.076915    0.180216
C       0.694850   -0.639565    1.413143
C      -0.589131   -0.906661    2.150721
C      -1.245648    0.074658    2.786638
C      -2.604831    0.268555    2.143397
N      -2.590641   -0.597034    0.941422
C      -1.379735   -0.635206    0.025994
C      -1.533835   -1.571310    1.163138
H       0.670130    1.885897    0.397103
H       0.562512   -0.094508   -0.744231
H       1.231376   -1.533407    1.077779
H       1.393079    0.029385    1.923766
H      -0.776342    0.845840    3.386959
H      -3.473590   -0.025294    2.747767
H      -2.731508    1.321208    1.868564
H      -1.686557   -0.877999   -0.985681
H      -1.723233   -2.639743    1.116530
