15

O      -0.152522    1.422539    0.355800
C      -0.000964    0.064652    0.037748
C      -1.330449   -0.704787   -0.069125
C      -1.140767   -1.576403   -1.280176
C      -0.037281   -1.271953   -1.992635
C       0.391423   -1.902297   -3.259624
O      -0.172021   -2.846813   -3.763269
C       0.649122   -0.132296   -1.342318
O       1.519656    0.583447   -1.784821
H       0.583897    1.879875   -0.074921
H       0.649418   -0.447333    0.769555
H      -1.583826   -1.285513    0.823196
H      -2.152970    0.003590   -0.231258
H      -1.838112   -2.357764   -1.563964
H       1.285875   -1.440686   -3.722984
