22

C      -0.099608    1.574752   -0.098138
C       0.001641    0.052411   -0.032256
C       1.175958   -0.531973   -0.874073
C       2.013448   -0.660937    0.425705
C       0.696248   -0.536025    1.244349
C       0.689200    0.241098    2.554113
C       1.472335   -0.460747    3.657141
O       1.407673    0.346285    4.824432
H       0.869783    2.056763    0.069716
H      -0.453811    1.889033   -1.086095
H      -0.799189    1.967753    0.647114
H      -0.981431   -0.379404   -0.245983
H       0.931694   -1.507482   -1.303749
H       1.575501    0.104898   -1.668403
H       2.610258   -1.567260    0.556156
H       2.667845    0.203478    0.579308
H       0.291740   -1.540585    1.422549
H       1.117113    1.240320    2.413157
H      -0.340962    0.387524    2.903292
H       1.042316   -1.459741    3.839806
H       2.515778   -0.611263    3.335606
H       1.914741   -0.086628    5.517227
