19

C       0.096015    1.542898   -0.154416
C      -0.039239    0.040044   -0.057864
C       1.105658   -0.822286   -0.381398
O       0.727907   -0.580273    0.984342
C      -1.449116   -0.558420   -0.199304
O      -1.422449   -1.945583    0.049004
C      -2.460460    0.134079    0.707298
C      -3.585835   -0.601074    1.290486
O      -2.431630   -0.272359    2.075819
H       1.149510    1.831493   -0.144997
H      -0.355245    1.915935   -1.080707
H      -0.395415    2.038203    0.687944
H       0.931884   -1.835938   -0.731351
H       2.045442   -0.364234   -0.685724
H      -1.776532   -0.426127   -1.239449
H      -1.004545   -2.035917    0.917875
H      -2.575269    1.207764    0.555622
H      -4.494989   -0.064403    1.556766
H      -3.698078   -1.656759    1.060114
