22

C       0.086103    1.565228   -0.032932
C       0.019689    0.038787    0.011637
O       0.687314   -0.472210    1.166149
C      -1.417312   -0.491072   -0.091404
C      -1.501321   -2.015106   -0.111156
C      -1.295482   -2.857817    1.179655
N      -2.583746   -3.614790    0.969542
C      -3.641423   -2.593921    1.046518
C      -2.868642   -2.692561   -0.207940
H       1.121937    1.903168    0.058407
H      -0.326445    1.954988   -0.969070
H      -0.490940    2.003474    0.791560
H       0.599141   -0.366027   -0.828353
H       0.272494   -0.076675    1.940974
H      -2.007098   -0.086594    0.743505
H      -1.873438   -0.092593   -1.008053
H      -0.845053   -2.396650   -0.900379
H      -0.439505   -3.532288    1.143322
H      -1.269937   -2.307519    2.125540
H      -4.641654   -3.016909    1.047869
H      -3.510902   -1.746643    1.717308
H      -3.314834   -3.067735   -1.124600
