25

C      -0.767996    1.223253    0.544824
C      -0.313597   -0.237735    0.457328
C       0.320556   -0.605988   -0.891862
C       1.639115    0.146714   -1.217502
C       2.487438   -0.813694   -2.089948
C       1.947174   -2.218060   -1.837023
C       1.849832   -2.742494   -0.421870
C       2.654144   -2.251272    0.765302
C       0.644874   -2.087645   -1.071346
H       0.073806    1.913759    0.427312
H      -1.497766    1.457176   -0.239013
H      -1.238013    1.436698    1.510046
H       0.399603   -0.450708    1.263411
H      -1.175094   -0.894707    0.633482
H      -0.411802   -0.358764   -1.675244
H       1.450289    1.094242   -1.729831
H       2.165340    0.402963   -0.292659
H       2.355176   -0.577491   -3.151939
H       3.559209   -0.718220   -1.880896
H       2.059532   -2.942875   -2.637197
H       1.739487   -3.825713   -0.398312
H       2.861978   -1.181262    0.738904
H       2.132954   -2.462916    1.705890
H       3.620177   -2.768136    0.804923
H      -0.195755   -2.738865   -1.292958
