19

O       0.162431    0.160555   -0.406344
C       0.255930    1.350293   -0.442285
O       1.035673    2.044939    0.411864
C       1.048236    3.451976    0.248797
C       2.183598    4.165848    0.914080
C       2.126729    4.079784   -0.587352
C       3.058374    3.320921   -1.541010
C       2.575742    4.263157   -2.684764
C       1.910631    5.190935   -1.623924
H      -0.282097    2.001028   -1.158817
H       0.057824    3.901202    0.264773
H       1.976108    5.113687    1.400344
H       2.912005    3.541146    1.421181
H       4.115004    3.458730   -1.293521
H       2.871745    2.251177   -1.663415
H       3.351604    4.712531   -3.307119
H       1.842901    3.784024   -3.338343
H       0.878067    5.500329   -1.810210
H       2.505680    6.084303   -1.410145
