18

C       0.064639    1.528127   -0.191420
C       0.019482    0.003764   -0.073457
C      -1.414612   -0.537444    0.071803
O      -2.247220   -0.128155   -1.012903
C      -1.444185   -2.020066    0.249466
C      -1.851848   -2.877874    1.215192
N      -1.630088   -4.188829    0.803845
C      -1.114004   -4.063193   -0.372028
O      -0.960201   -2.783243   -0.788986
H       1.089834    1.879627   -0.339381
H      -0.543483    1.867644   -1.033372
H      -0.325118    2.005619    0.714499
H       0.477477   -0.461434   -0.956121
H       0.605347   -0.333528    0.790109
H      -1.874320   -0.096363    0.963559
H      -1.937606   -0.587124   -1.802160
H      -2.289085   -2.651149    2.174513
H      -0.796693   -4.836193   -1.054222
