20

C       0.125660    1.404280    0.018171
C       0.119832   -0.111849    0.030314
O       0.694304   -0.561063   -1.215270
C       0.761084   -1.891516   -1.390006
O       0.371284   -2.702720   -0.584273
C       1.389907   -2.235374   -2.728871
C       2.946824   -2.160599   -2.717474
C       2.907383   -3.704950   -2.608667
N       1.471366   -3.681022   -2.997007
H       1.144581    1.790506   -0.074543
H      -0.465741    1.790133   -0.816855
H      -0.303893    1.784333    0.949798
H       0.708952   -0.518852    0.858257
H      -0.892290   -0.518851    0.118171
H       0.887576   -1.647966   -3.505724
H       3.348736   -1.799662   -3.665030
H       3.407063   -1.607883   -1.897880
H       3.545550   -4.268019   -3.296834
H       3.089526   -4.060416   -1.586887
H       0.869501   -4.215994   -2.377211
