19

C      -0.240778    1.430210   -0.081010
N      -0.330072   -0.008140   -0.291749
C       0.549815   -0.587673   -0.959650
O       1.670396   -0.081829   -1.625991
C       1.990544   -1.387304   -2.183506
C       2.948499   -2.209778   -1.307565
N       1.808537   -2.640927   -0.446299
C       0.815994   -2.023929   -1.384470
C      -0.316714   -2.879635   -1.884209
H       0.572328    1.913863   -0.634677
H      -1.190701    1.892724   -0.369442
H      -0.100960    1.626668    0.987956
H       2.111044   -1.345212   -3.265393
H       3.422436   -3.024178   -1.869006
H       3.719664   -1.640087   -0.780409
H       1.708045   -3.648183   -0.391326
H      -0.972326   -3.148964   -1.049371
H      -0.921446   -2.341683   -2.619717
H       0.055424   -3.801094   -2.344532
