14

N       0.017384    1.386824   -0.127154
C      -0.037791    0.026826   -0.024983
C      -1.271467   -0.613134    0.021549
N      -1.573690   -1.921026    0.048445
C      -0.778284   -2.945984    0.005937
C       0.681559   -3.017532   -0.071395
O       1.267245   -4.089667   -0.173536
C       1.508019   -1.779824    0.019842
N       1.219198   -0.527844    0.026183
H       0.907996    1.819345    0.051924
H      -0.812636    1.939735   -0.000093
H      -2.141847    0.042819    0.038498
H      -1.248453   -3.929962    0.028663
H       2.571310   -2.024533    0.082274
