21

C       0.062281    1.460253    0.009471
O       1.197890    0.574854   -0.006610
C      -0.105245    0.010771    0.003134
C      -0.568928   -0.889002    1.144348
C      -2.069378   -1.029317    0.801402
C      -2.084843   -1.020647   -0.767714
C      -0.591431   -0.876390   -1.138595
C       0.137055   -2.198566   -0.795438
C       0.152501   -2.207233    0.772309
H      -0.072018    2.023202    0.932764
H      -0.090149    2.033328   -0.904732
H      -0.361674   -0.527443    2.152318
H      -2.496604   -1.944306    1.221405
H      -2.643646   -0.188952    1.202327
H      -2.520372   -1.930983   -1.189297
H      -2.666806   -0.175963   -1.147930
H      -0.404041   -0.503688   -2.146396
H      -0.376790   -3.066393   -1.218667
H       1.154934   -2.189935   -1.193528
H       1.178025   -2.202914    1.150342
H      -0.353020   -3.079731    1.195959
