14

C      -0.066176    1.557968    0.010866
C       0.059050    0.054193    0.077543
C       1.325103   -0.699079   -0.217267
O       2.544340    0.029463   -0.112698
C       2.628677    0.396756    1.193563
N       1.718317    0.024516    1.999240
C       0.759538   -0.703791    1.200091
H       0.788911    2.063322    0.464191
H      -0.141930    1.894486   -1.028240
H      -0.963706    1.890070    0.541971
H      -0.815427   -0.483162   -0.282566
H       1.391058   -1.521655   -0.917963
H       3.498653    0.992598    1.441591
H       0.269017   -1.541583    1.680657
