14

O      -0.079576    1.459037   -0.079083
C       0.055255    0.050775   -0.108856
C      -1.342143   -0.527678    0.141675
C      -1.358567   -2.015512    0.143576
C      -1.671569   -2.949697    1.083824
N      -1.491942   -4.183349    0.506397
N      -1.102003   -4.068835   -0.680529
O      -0.998296   -2.659873   -0.968123
H       0.781442    1.849988   -0.253718
H       0.429149   -0.305846   -1.079299
H       0.747351   -0.309988    0.667808
H      -1.714776   -0.163225    1.102778
H      -2.015806   -0.149087   -0.635211
H      -2.005043   -2.834620    2.100672
