17

C       0.332649    1.493397   -0.289015
C       0.060776    0.014708   -0.027677
O       0.412695   -0.807171   -1.132836
C       1.455749   -1.683334   -0.764812
C       2.771166   -1.336829   -1.464238
O       3.282732   -0.089585   -1.044935
O       1.638586   -1.565007    0.646670
C       0.887984   -0.533053    1.127042
O       0.923244   -0.170331    2.263766
H       1.378745    1.632348   -0.570486
H      -0.304092    1.851473   -1.101590
H       0.114508    2.070781    0.613636
H      -1.000643   -0.140565    0.207400
H       1.158679   -2.716931   -0.987607
H       3.487622   -2.154571   -1.297585
H       2.576583   -1.264524   -2.538233
H       3.576238   -0.190125   -0.132650
