17

C       0.407008    1.729148   -0.126629
N       0.085070    0.319336    0.078622
C       1.120101   -0.675911   -0.026751
C       0.462621   -0.403611    1.300165
C       1.233620    0.165355    2.440012
O       0.964338   -0.034220    3.594510
O       2.298663    0.938042    2.031816
C       3.080516    1.525333    2.996521
N       4.035918    2.247376    2.613416
H       1.433556    2.007696    0.134236
H       0.239600    1.950729   -1.185012
H      -0.286952    2.339576    0.459002
H       0.861918   -1.591276   -0.553591
H       2.151101   -0.345432   -0.136216
H      -0.305695   -1.076522    1.668061
H       2.760668    1.278343    4.008492
H       4.534638    2.617075    3.421606
