16

C      -0.007312    1.381200    0.002027
O      -0.014569   -0.040936    0.028306
C       0.582939   -0.640033   -1.016494
N       0.626349   -1.904621   -1.070192
C       1.247988   -2.498853   -2.159459
C       1.369373   -3.855235   -2.348259
N       2.044536   -3.997955   -3.541037
C       2.298467   -2.745836   -4.014670
N       1.835633   -1.818221   -3.213019
H       1.015215    1.777295    0.019260
H      -0.529167    1.768816   -0.881229
H      -0.532799    1.707849    0.900143
H       1.004396    0.029769   -1.773483
H       1.044329   -4.693129   -1.756578
H       2.300714   -4.866450   -3.978266
H       2.821779   -2.577864   -4.944586
