21

C       0.009577    1.495832    0.119234
C       0.029107   -0.018355   -0.013795
C       0.740664   -0.511792   -1.281223
C       1.002943   -1.991957   -1.194574
C       0.938103   -2.637622   -0.030750
C       0.657179   -1.926498    1.234405
C      -0.324561   -2.523544    2.234561
C       1.151490   -2.463501    2.548179
O       0.692730   -0.528628    1.145546
H       1.030980    1.884899    0.177231
H      -0.487483    1.951122   -0.742842
H      -0.522406    1.794895    1.026410
H      -1.004491   -0.401486   -0.026121
H       0.120925   -0.284837   -2.158404
H       1.681039    0.041505   -1.418640
H       1.235575   -2.527902   -2.110244
H       1.086913   -3.711920    0.032045
H      -0.970294   -1.817115    2.743503
H      -0.774616   -3.484891    2.012410
H       1.727445   -3.382359    2.542646
H       1.480471   -1.720253    3.265269
