21

C      -2.663048    0.957837    1.387650
C      -2.034809   -0.417283    1.438546
O      -2.228289   -1.163238    2.380352
C      -1.129152   -0.797618    0.273776
C      -0.958649   -2.310053    0.020349
C       0.145433   -2.555917   -1.008566
O      -0.553062   -2.984720    1.213574
C      -2.287637   -2.943337   -0.455243
O      -2.175336   -4.347878   -0.506424
H      -3.153060    1.183988    2.335144
H      -1.909133    1.718932    1.159075
H      -3.401162    0.991392    0.577438
H      -1.473446   -0.293438   -0.636767
H      -0.145171   -0.363152    0.503593
H       1.112514   -2.240703   -0.607747
H       0.192244   -3.620830   -1.245675
H      -0.052009   -2.005017   -1.933510
H      -1.123164   -2.639785    1.921220
H      -3.101772   -2.634834    0.221168
H      -2.540632   -2.595707   -1.463825
H      -1.692479   -4.583102    0.298910
