17

O       0.041524    0.185465   -0.677711
C      -0.010369    1.258435   -0.127755
C      -1.270092    1.935899    0.432325
C      -0.797028    3.281870    0.948004
N       0.161770    3.164760    2.062842
C       0.666871    3.436197    0.698565
C       1.167974    2.191461    0.038653
C       2.521471    1.593524    0.201336
N       2.158384    2.253033   -1.051808
H      -2.001540    2.035532   -0.377464
H      -1.719593    1.310583    1.209453
H      -1.465284    4.135301    0.913926
H       0.164239    4.027461    2.601775
H       1.124087    4.389855    0.461617
H       3.250695    2.120847    0.809384
H       2.577763    0.508651    0.219999
H       1.907383    1.539413   -1.736824
