19

C       0.540170    1.559007   -0.641699
C       0.259754    0.178806   -0.272614
C       0.031424   -0.965220    0.029028
C      -0.260581   -2.331444    0.408816
C      -0.195720   -2.716847    1.930189
C      -1.471874   -3.528232    1.709300
C      -1.746433   -4.919193    2.072934
O      -2.432341   -3.823265    2.700293
C      -1.756053   -2.811574    0.389697
H       1.362267    1.620039   -1.363567
H      -0.335132    2.035758   -1.097004
H       0.823300    2.156011    0.232465
H       0.354839   -3.026259   -0.171788
H       0.698318   -3.237936    2.278600
H      -0.382028   -1.847631    2.566149
H      -2.360437   -5.540532    1.421716
H      -1.051636   -5.461074    2.713847
H      -2.442057   -1.972671    0.532289
H      -2.081583   -3.406701   -0.465922
