17

O      -0.173976    0.349040   -0.813415
C      -0.015562    1.384058   -0.236722
C      -0.815628    2.698581   -0.123296
N       0.410677    3.384178    0.427264
C       0.691244    2.694792    1.683666
C       1.167408    2.050229    0.419564
C       2.604210    1.930801    0.047688
C       3.068529    2.442755   -1.265102
N       3.420000    3.154134   -0.022983
H      -1.078696    3.092622   -1.108473
H      -1.687543    2.737126    0.535350
H       1.458606    3.170869    2.287027
H      -0.133588    2.262210    2.245852
H       3.116478    1.078666    0.488791
H       3.898140    1.958067   -1.770560
H       2.328428    2.891687   -1.922061
H       2.798741    3.957312    0.072525
