15

C      -0.015510    1.497218   -0.026069
C      -0.006403    0.005826    0.048541
N      -0.035485   -0.744159   -1.057759
N      -0.017808   -2.048794   -0.661969
C       0.022640   -2.157719    0.689572
C       0.030457   -0.860068    1.159760
O       0.070532   -0.838428    2.522058
C       0.087644   -2.157729    2.893143
C       0.060379   -3.017768    1.832963
H       0.879376    1.926214    0.437853
H      -0.049820    1.811204   -1.071046
H      -0.883247    1.918189    0.493419
H      -0.035305   -2.764066   -1.366038
H       0.119815   -2.332264    3.956683
H       0.067076   -4.094083    1.890079
