19

O       0.125287    1.264526    0.294875
C       0.013545   -0.125260   -0.000965
C      -1.466263   -0.555763   -0.000318
O      -2.079250   -0.102834    1.199804
C      -2.204931    0.060700   -1.208822
O      -1.599480   -0.230726   -2.451864
C      -1.546717   -2.075360    0.030643
C      -2.753972   -2.832263   -0.312427
O      -1.649813   -2.765258   -1.228229
H      -0.008589    1.754634   -0.522653
H       0.480252   -0.377094   -0.958551
H       0.541697   -0.646957    0.803766
H      -1.657527    0.746948    1.393255
H      -3.263705   -0.233859   -1.175563
H      -2.188136    1.149887   -1.089202
H      -1.598659   -1.195626   -2.522690
H      -0.852452   -2.545641    0.728058
H      -2.911471   -3.809342    0.139464
H      -3.655782   -2.315239   -0.628199
