20

C       0.002189    1.466745   -0.036351
N       1.248664    0.731807    0.121446
C      -0.036063   -0.039893    0.018080
C      -0.392684   -0.659377    1.319306
C      -0.883784   -1.867328    1.595351
C      -1.257355   -2.980024    0.651277
C      -1.940918   -2.547621   -0.655591
C      -1.093669   -1.721821   -1.587269
C      -0.305818   -0.688185   -1.288231
H      -0.314800    2.033375    0.835634
H      -0.226075    1.937832   -0.989266
H       1.743466    0.676149   -0.766136
H      -0.155856   -0.011101    2.159915
H      -1.016718   -2.100692    2.650000
H      -0.361313   -3.567406    0.405756
H      -1.927476   -3.669962    1.177379
H      -2.269240   -3.447487   -1.187550
H      -2.858198   -1.995604   -0.407191
H      -1.160100   -1.989998   -2.639440
H       0.200627   -0.195312   -2.118752
