12

C      -0.040271    1.589674   -0.026868
C      -0.018013    0.046348   -0.034699
C       0.738055   -0.511775    1.228868
O       1.211956    0.208085    2.052781
C      -1.377692   -0.512913    0.012892
N      -2.442267   -0.950221    0.110595
C       0.692927   -0.476984   -1.211201
N       1.302333   -0.885146   -2.103457
H       0.984108    1.964153   -0.026187
H      -0.566728    1.962859   -0.906138
H      -0.542552    1.937511    0.876618
H       0.783523   -1.616183    1.272644
