19

C       0.021750    1.549223    0.010584
C      -0.019049    0.048661    0.059474
C       1.149973   -0.820444   -0.330727
C       0.590466   -0.946838    1.064017
C       1.411667   -0.720753    2.301049
C      -0.681716   -1.804767    1.003318
C      -1.300151   -0.794555   -0.016738
H       1.006576    1.932519    0.298591
H      -0.189779    1.920762   -1.000101
H      -0.719662    1.993126    0.685634
H       1.030583   -1.624862   -1.055438
H       2.104230   -0.305132   -0.399277
H       2.135379    0.089007    2.158652
H       0.781192   -0.457908    3.158862
H       1.978376   -1.620303    2.572936
H      -0.550326   -2.837790    0.662060
H      -1.228504   -1.821502    1.950212
H      -2.173334   -0.278412    0.391911
H      -1.561763   -1.185204   -1.006606
