22

C      -0.311276    1.416411    0.173345
C       0.040773   -0.032815   -0.059569
C      -0.726005   -1.122703    0.600843
N       0.631223   -0.789543    1.062763
C       1.678483   -1.672543    0.521078
C       1.655873   -1.613207   -1.035831
C       1.199442   -2.909369   -1.703771
O       2.129161   -3.923781   -1.352558
C       0.751545   -0.396411   -1.362352
H       0.576750    2.053426    0.089162
H      -1.044525    1.764763   -0.563284
H      -0.735061    1.556580    1.170970
H      -1.516555   -0.876922    1.305910
H      -0.883718   -2.055159    0.064973
H       2.638698   -1.309156    0.900193
H       1.552572   -2.694522    0.890856
H       2.671738   -1.435475   -1.401911
H       0.181350   -3.180648   -1.382686
H       1.166092   -2.763174   -2.795834
H       1.828245   -4.755249   -1.730118
H       0.043049   -0.610645   -2.171084
H       1.354635    0.455913   -1.692424
