19

C      -0.106514    1.130204    0.035291
C       0.137352   -0.327095    0.419719
O       0.728974   -0.437437    1.712140
C      -1.132140   -1.188659    0.349441
C      -1.614762   -1.489806   -1.056201
O      -1.098954   -1.038560   -2.055795
C      -2.808516   -2.398825   -1.199362
C      -2.839251   -3.736353   -0.570972
O      -3.598347   -2.661915   -0.038092
H       0.820649    1.702163    0.127481
H      -0.465993    1.201375   -0.993667
H      -0.857130    1.585310    0.695352
H       0.878587   -0.754655   -0.263222
H       0.173923    0.049281    2.331450
H      -0.944875   -2.134168    0.873376
H      -1.963503   -0.721906    0.896427
H      -3.358888   -2.254303   -2.127670
H      -3.409952   -4.525056   -1.058059
H      -1.999758   -4.070394    0.035922
