18

C       0.056978    1.583586   -0.087391
N      -0.017943    0.123425   -0.046744
C      -1.119636   -0.442842    0.791024
C      -0.326313   -1.753740    1.058929
C      -0.571987   -1.701125    2.576535
C      -0.421676   -0.216860    2.189107
C       0.677328   -0.533051    1.103261
C       2.153928   -0.630932    1.252636
O       2.712467   -0.840843    2.301965
H       1.029294    1.887043   -0.488229
H      -0.713068    1.958381   -0.769305
H      -0.081475    2.074426    0.889895
H      -2.175581   -0.335136    0.537144
H      -0.238595   -2.598151    0.376126
H      -1.562433   -2.018699    2.915102
H       0.210744   -2.115646    3.214271
H      -0.466249    0.658392    2.835472
H       2.718343   -0.520464    0.299104
