10

N      -0.047316    1.372251    0.010533
C       1.276495    1.746704   -0.000948
N       2.137628    0.737090   -0.014546
C       1.314482   -0.343094   -0.012320
C      -0.014181   -0.003395    0.002594
N      -0.764868   -1.125544    0.003934
N       0.001679   -2.131636   -0.009644
O       1.425531   -1.658541   -0.020135
H      -0.844953    1.984909    0.021895
H       1.559630    2.789028    0.001851
