11

O      -0.035280   -0.073836    0.003613
C      -0.021255    1.133340    0.009525
N      -1.176327    1.907844    0.028859
N      -1.256706    3.251103    0.036763
C      -0.155505    3.918438    0.025506
C       1.185361    3.305035    0.004584
O       2.231759    3.912077   -0.006262
N       1.127546    1.909387   -0.001769
H      -2.055464    1.413654    0.038054
H      -0.218827    4.999483    0.031843
H       2.005463    1.405842   -0.015994
