21

C       0.095798    1.558337    0.200954
O      -0.288002    0.208473    0.326282
C       0.616883   -0.584805    1.059901
C      -0.024485   -1.951083    1.354510
C       1.158371   -2.869199    1.697221
C       1.391043   -4.091258    0.788440
O       2.372583   -3.379481    0.004702
C       2.373783   -2.268577    0.935906
C       1.941068   -0.927201    0.328569
H       1.019331    1.678662   -0.384293
H      -0.714341    2.078319   -0.316321
H       0.247946    2.030300    1.184891
H       0.855718   -0.077525    2.011828
H      -0.777408   -1.891850    2.143771
H      -0.530392   -2.283852    0.441039
H       1.273007   -3.039199    2.768712
H       1.832614   -4.959782    1.294924
H       0.539570   -4.425530    0.182951
H       3.325244   -2.217960    1.477792
H       1.733727   -1.070568   -0.736697
H       2.699651   -0.147132    0.429991
