20

C      -0.581643    1.378949    0.068455
C       0.074515    0.007993    0.012850
C       1.408075   -0.160501   -0.787630
C       2.079712   -0.775530    0.463424
C       2.901238   -2.030349    0.385965
O       2.746238    0.279508    1.249828
C       1.621123    0.464342    2.032641
N       1.432947    1.229794    3.010125
C       0.781505   -0.548697    1.296902
H       0.116140    2.141875    0.426104
H      -0.932455    1.677589   -0.925406
H      -1.442705    1.378318    0.744640
H      -0.653497   -0.735222   -0.325405
H       1.336535   -0.837167   -1.642728
H       1.884927    0.768477   -1.108756
H       3.820586   -1.851017   -0.182280
H       3.178099   -2.378843    1.385187
H       2.340636   -2.823509   -0.118420
H       2.271064    1.778301    3.213332
H       0.267313   -1.302607    1.890544
