15

O      -0.085988    0.041663    0.191485
C      -0.044244    1.233214    0.045097
N      -1.023202    2.188156   -0.135899
C      -0.103334    3.342130   -0.006018
C      -0.038565    3.992802    1.352309
C       0.983461    3.536293    2.077067
C       1.831854    2.519708    1.345547
C       1.072842    2.310300    0.020960
H      -2.012909    2.121233    0.059993
H      -0.177577    4.039252   -0.845453
H      -0.760596    4.731383    1.682568
H       1.208669    3.844067    3.093042
H       2.848004    2.897016    1.176942
H       1.939179    1.584514    1.907680
H       1.706596    2.263339   -0.864377
