16

O      -0.023170    0.018474   -0.423733
C      -0.048111    1.171112   -0.123132
C      -1.182373    2.154184    0.333809
C      -0.072115    3.202024    0.620186
C       0.729659    3.162434    1.944630
O       1.749529    2.289358    1.333075
C       1.011883    2.290929    0.100010
C       1.315269    3.353183   -0.994086
N       0.311410    4.262773   -0.338896
H      -1.877232    2.422639   -0.467874
H      -1.765615    1.800239    1.189328
H       1.156823    4.122191    2.246378
H       0.250831    2.669770    2.798167
H       2.333570    3.751453   -0.970267
H       1.078476    3.035427   -2.015927
H      -0.430243    4.602252   -0.939451
