16

C       0.001267    1.434311    0.008790
N      -0.093625   -0.008775    0.002773
C      -1.259360   -0.677425    0.009828
O      -2.381671   -0.190848    0.021925
C      -1.032009   -2.204485    0.000657
O       0.090294   -2.691081   -0.011405
N      -2.197752   -2.873109    0.007651
C      -2.292683   -4.316195    0.001669
H       0.536122    1.792143    0.895240
H       0.520664    1.800589   -0.883387
H      -1.014128    1.833593    0.019504
H       0.729667   -0.596298   -0.007144
H      -3.021022   -2.285558    0.017508
H      -2.827570   -4.674001   -0.884769
H      -1.277317   -4.715545   -0.009043
H      -2.812079   -4.682438    0.893861
