25

C      -0.894674    1.104237   -0.017348
C       0.116042   -0.041339   -0.002967
C       1.179471    0.035971   -1.125054
C       2.396411   -0.780104   -0.609830
C       2.013942   -1.248600    0.820464
C       3.209311   -1.467298    1.744882
O       4.032346   -2.549407    1.324992
C       0.949923   -0.225406    1.291757
C       1.539885    1.083374    1.839664
H      -0.404088    2.079970    0.061319
H      -1.467303    1.102598   -0.951199
H      -1.610743    1.020515    0.807762
H      -0.440980   -0.978557   -0.139847
H       0.790615   -0.343527   -2.074432
H       1.462564    1.079498   -1.302828
H       2.629557   -1.627868   -1.260614
H       3.295297   -0.151350   -0.579765
H       1.510278   -2.220259    0.734153
H       3.799551   -0.542058    1.835549
H       2.867260   -1.734553    2.751151
H       4.404484   -2.315899    0.468960
H       0.327657   -0.667687    2.079657
H       2.185146    1.586633    1.111144
H       0.747001    1.784514    2.115734
H       2.137498    0.902126    2.737885
