15

O      -0.048401    1.345120    0.089240
C       0.061688   -0.021029    0.046758
C      -1.059520   -1.025818    0.110549
C      -0.300057   -0.886496   -1.174450
N       0.453687   -2.187599   -1.012989
C       1.866160   -1.868820   -0.974988
N       2.282161   -1.205565    0.031698
C       1.058684   -0.949094    0.806606
C       0.046963   -2.069339    0.449142
H       0.662661    1.726288   -0.439400
H      -2.111248   -0.962294    0.340997
H      -0.602055   -0.488420   -2.133981
H       2.496690   -2.151055   -1.813792
H       1.228007   -0.706281    1.853625
H      -0.049919   -2.994785    1.013988
