25

C      -1.675204    0.106365   -0.173670
C      -0.159930    0.278830   -0.017898
C       0.717257   -0.578968   -0.952362
C       0.414664   -0.267865   -2.426631
O       0.633936    1.118281   -2.659834
C       2.221515   -0.358235   -0.661713
C       2.943126   -1.605316   -1.211368
C       1.896669   -2.755529   -1.156001
C       0.562089   -2.101882   -0.712877
H      -2.023228    0.445290   -1.154359
H      -1.983748   -0.937147   -0.048572
H      -2.206024    0.697969    0.579087
H       0.095150    1.332305   -0.173118
H       0.122005    0.038614    1.015456
H       1.059030   -0.878917   -3.076880
H      -0.626317   -0.543913   -2.653712
H       0.479927    1.295335   -3.591903
H       2.585442    0.575708   -1.096885
H       2.363690   -0.289737    0.423707
H       3.271445   -1.436727   -2.241869
H       3.844640   -1.838225   -0.637917
H       1.794954   -3.235539   -2.134026
H       2.195481   -3.543934   -0.459428
H       0.396756   -2.271839    0.357317
H      -0.302114   -2.527615   -1.233460
