18

C      -0.090494    1.570067    0.017712
C       1.447513    1.286154   -0.034660
C       1.326488    0.145397    1.020368
C       1.851634   -1.026890    0.165610
C       0.765289   -2.122938    0.304858
N      -0.062192   -2.022735    1.537737
C      -0.522707   -1.365468    0.289228
C       0.037512    0.034502    0.141648
C       1.250242   -0.017612   -0.859523
H      -0.459031    2.106004    0.897869
H      -0.553222    1.960873   -0.894459
H       2.251707    2.015951   -0.128873
H       1.319028    0.250161    2.103308
H       2.896654   -1.341670    0.154221
H       0.873226   -3.086409   -0.182023
H      -0.572513   -2.896327    1.659943
H      -1.405853   -1.720759   -0.228960
H       1.164102   -0.106044   -1.944790
