21

C       0.215743    1.447955   -0.312536
C       0.133740   -0.023260    0.034943
O       1.028665   -0.835060   -0.765723
C       1.451758   -1.596910    0.393067
C       2.956952   -1.786817    0.372596
O       3.340762   -2.481737   -0.800595
C       0.743281   -0.608596    1.351626
C       1.618121    0.322390    2.179971
O      -0.173282   -1.304013    2.174601
H       1.234323    1.831515   -0.211195
H      -0.101157    1.601945   -1.348973
H      -0.448403    2.035421    0.331009
H      -0.899545   -0.384067   -0.068479
H       0.955226   -2.575749    0.417683
H       3.464521   -0.812579    0.438013
H       3.277012   -2.395433    1.225386
H       2.944195   -2.000869   -1.537081
H       2.364972    0.841684    1.575503
H       1.002312    1.088633    2.667264
H       2.136655   -0.242523    2.960332
H      -0.547819   -0.681914    2.807454
