18

O      -0.046011   -0.083520   -0.067957
C      -0.048716    1.130614   -0.032518
C       1.250434    1.925798   -0.003892
C       2.483055    1.010074   -0.025938
C       3.731304    1.767071    0.001710
N       4.710149    2.380934    0.023961
C      -1.306022    1.925344   -0.014521
C      -2.498401    1.363762   -0.779940
C      -2.504618    1.320289    0.706773
H       1.260232    2.615471   -0.857135
H       1.253217    2.563930    0.888612
H       2.455312    0.325822    0.827464
H       2.462600    0.377621   -0.918609
H      -1.194877    3.003324    0.017455
H      -3.133580    2.078556   -1.289812
H      -2.317863    0.433942   -1.306704
H      -2.328255    0.361232    1.179791
H      -3.144219    2.004214    1.252217
