21

C       0.248418    1.484020   -0.049757
C       0.548669   -0.014340    0.019998
C       0.222552   -0.624756    1.387461
C       0.369530   -2.145158    1.388387
O       0.044455   -2.829105    0.432346
N       0.863441   -2.677047    2.545832
C       1.063249   -4.104072    2.740487
C       2.541245   -4.496895    2.795338
H       0.828841    2.046439    0.690742
H       0.490701    1.889304   -1.037009
H      -0.811801    1.685495    0.141232
H      -0.023252   -0.559058   -0.736656
H       1.606189   -0.192727   -0.211069
H       0.837858   -0.169664    2.173795
H      -0.822471   -0.403596    1.645030
H       1.146148   -2.049158    3.280380
H       0.553921   -4.419348    3.659876
H       0.566661   -4.592270    1.899485
H       3.045388   -4.234471    1.860835
H       3.059960   -3.989492    3.616503
H       2.644509   -5.575396    2.951922
