15

O       0.011370    1.338925    0.076848
C       0.014534   -0.068266   -0.018814
C      -1.417205   -0.571578   -0.133535
C      -1.382473   -0.471749   -1.650663
C       0.173420   -0.596869   -1.478270
O       0.086578   -2.037028   -1.322126
C      -1.307408   -1.834052   -1.026902
C      -2.216386   -2.921623   -0.998728
C      -2.992955   -3.839678   -0.973874
H       0.925627    1.638541    0.036354
H       0.671084   -0.536164    0.726954
H      -2.247850   -0.414581    0.541104
H      -2.047455   -0.039681   -2.383929
H       0.963240   -0.264433   -2.149152
H      -3.676083   -4.652498   -0.953725
