16

C      -0.566874    1.458554    0.102538
C      -0.011892    0.050440    0.015383
N       0.543362   -0.473055   -1.296059
C       1.882619    0.103420   -1.537910
C       2.353296    1.411745   -1.166385
C       2.828296    2.490365   -0.926156
C       1.751604   -1.030261   -0.564445
C       1.239586   -0.485803    0.750626
O       1.565598   -0.603624    1.893469
H       0.174926    2.216432   -0.144064
H      -1.418561    1.565160   -0.576659
H      -0.923053    1.639325    1.121616
H      -0.804407   -0.662668    0.282553
H       2.238885   -0.209218   -2.517817
H       3.232641    3.445118   -0.694553
H       2.178888   -2.007998   -0.757129
