14

O      -0.014155    0.012622   -0.008090
C       0.015809    1.207375   -0.002253
O      -1.100053    1.996243    0.009026
C      -0.615388    3.388232    0.044188
C       0.604729    3.290410   -0.885748
C       1.223025    2.170585   -0.002450
C       1.163451    2.845966    1.370257
C       0.058407    3.595057    1.397375
H      -1.448673    4.029787   -0.230102
H       0.339682    2.970358   -1.897331
H       1.212886    4.195341   -0.910787
H       2.156350    1.699330   -0.297159
H       1.864299    2.651597    2.170451
H      -0.353990    4.160980    2.220668
