21

C      -0.096454    1.459178    0.066239
C      -0.044648   -0.058947    0.056399
O      -1.379339   -0.546370    0.049774
C      -1.491049   -1.976728    0.054797
C      -1.508279   -2.459080    1.519320
O      -2.507849   -1.798810    2.258059
C      -2.705088   -2.349539   -0.665720
C      -3.699187   -2.690118   -1.251839
C      -4.906704   -3.090300   -1.958443
H       0.915993    1.873493    0.050022
H      -0.639606    1.828734   -0.807802
H      -0.604285    1.822709    0.964271
H       0.485433   -0.423002   -0.837984
H       0.506573   -0.428703    0.934594
H      -0.617238   -2.414798   -0.453469
H      -1.715353   -3.533065    1.554610
H      -0.507329   -2.295118    1.953241
H      -2.477550   -0.877754    1.968266
H      -4.685810   -3.821215   -2.744091
H      -5.635401   -3.542173   -1.276725
H      -5.386965   -2.228060   -2.433901
