20

C      -0.005836    1.530564    0.020429
C      -0.010350    0.021240   -0.004167
C      -0.063356   -0.679151   -1.210370
C      -0.035029   -2.070773   -1.209752
C       0.043859   -2.808500   -0.031094
C       0.085884   -4.314621   -0.045729
C       0.089694   -2.105454    1.189654
N       0.224569   -2.801535    2.396967
C       0.058943   -0.706983    1.182803
H       1.017704    1.926002    0.021932
H      -0.511747    1.944426   -0.856697
H      -0.502989    1.920165    0.914160
H      -0.126140   -0.138090   -2.149145
H      -0.077099   -2.605848   -2.154701
H       0.974156   -4.699240    0.470662
H      -0.788276   -4.759651    0.451534
H       0.100608   -4.695625   -1.069789
H      -0.203454   -3.715954    2.410603
H      -0.038993   -2.266869    3.212383
H       0.091899   -0.177916    2.132828
