20

C      -0.029634    1.610482    0.155957
C       0.054198    0.082168    0.054893
C       0.446338   -0.342371   -1.373463
O       1.094970   -1.598506   -1.426884
C       0.363755   -2.658030   -0.847143
C       0.656244   -2.889516    0.628577
N       0.714289   -4.084079    1.047993
O       0.761279   -1.838697    1.485692
C       1.046812   -0.494704    1.069396
H       0.958915    2.068139    0.034168
H      -0.680321    2.019386   -0.623874
H      -0.430771    1.923830    1.124277
H      -0.929923   -0.333272    0.304702
H      -0.439535   -0.335048   -2.028603
H       1.171107    0.368107   -1.786020
H      -0.719611   -2.509231   -0.978862
H       0.636594   -3.579623   -1.363184
H       0.864805   -4.092644    2.059331
H       2.072240   -0.438187    0.685547
H       0.999139    0.072762    2.002533
