14

O      -0.035371   -0.015837    0.130116
C       0.021048    1.177669   -0.039668
C       1.284501    1.954730   -0.020195
C       2.750172    1.417928   -0.013029
C       2.948488    2.974602    0.014598
C       1.786169    3.043329   -1.037992
C       1.821663    2.975582    1.047564
O       1.501395    3.465146    2.079762
H      -0.897068    1.783842   -0.206621
H       3.074491    0.846589    0.856554
H       3.052377    0.945320   -0.949814
H       3.882968    3.529800    0.010207
H       2.047656    2.638985   -2.018540
H       1.221829    3.973940   -1.114214
