16

C       0.121480    1.479669   -0.231954
C      -0.062516    0.018901    0.114301
O       1.099131   -0.819763    0.086168
C       0.450716   -0.631107    1.347769
C       1.222992    0.083535    2.433258
C       2.349464   -0.789294    2.970981
O       2.540131   -0.997625    4.139135
C      -1.242653   -0.587786   -0.489166
N      -2.193064   -1.040242   -0.965948
H       1.027330    1.878602    0.225262
H       0.206943    1.593962   -1.316066
H      -0.739689    2.063317    0.105887
H      -0.097803   -1.510601    1.687716
H       1.682283    0.995774    2.036428
H       0.564260    0.354484    3.263285
H       3.006459   -1.222790    2.185870
