23

C      -0.002878    1.561791    0.054765
C      -0.028693    0.036782   -0.096513
C      -1.434032   -0.551679    0.014736
C      -1.508741   -2.112111    0.028740
C      -1.373929   -2.037108    1.577946
C      -2.049919   -0.636649    1.456967
C      -3.541443   -0.858027    1.307891
C      -3.955022   -1.784925    0.442308
C      -2.930123   -2.568721   -0.350105
H       1.013623    1.954667   -0.046982
H      -0.624994    2.044013   -0.707458
H      -0.382105    1.873043    1.033969
H       0.384779   -0.237507   -1.076806
H       0.638851   -0.414682    0.647354
H      -2.086015   -0.063899   -0.719386
H      -0.745368   -2.661355   -0.530509
H      -1.895657   -2.789312    2.174879
H      -0.331783   -1.977993    1.898073
H      -1.798449    0.136447    2.185504
H      -4.236707   -0.269687    1.899045
H      -5.008493   -1.999729    0.287087
H      -3.097812   -2.431843   -1.428276
H      -3.047946   -3.646150   -0.164320
