19

C       0.022458    1.458475   -0.080099
N      -0.060015    0.003179    0.014406
C       0.841059   -0.536815    1.029485
C      -1.388584   -0.504655    0.082114
C      -2.381063   -0.373373    1.037493
N      -3.467676   -1.071273    0.592756
C      -3.207072   -1.656949   -0.634333
C      -1.918947   -1.313755   -0.964711
O      -1.221571   -1.655081   -2.077742
H       1.049856    1.753879   -0.321247
H      -0.636895    1.811001   -0.876587
H      -0.264943    1.969405    0.855888
H       0.613264   -0.172986    2.047059
H       0.773961   -1.627180    1.035011
H       1.872874   -0.251926    0.794621
H      -2.399450    0.150939    1.979069
H      -4.338587   -1.150792    1.084797
H      -3.942861   -2.249970   -1.149069
H      -0.357840   -1.229320   -1.958439
