20

O       0.240770    1.337928   -0.288007
C       0.061702   -0.045330   -0.030860
C      -1.365354   -0.524123   -0.317243
C      -1.512835   -2.012029   -0.089125
N      -1.716100   -2.460593    1.298329
C      -2.781270   -2.688157    0.307089
C      -4.074481   -1.975761    0.527364
C      -5.214550   -2.167010   -0.378547
O      -5.184883   -2.801016    0.899810
H      -0.290227    1.825674    0.349495
H       0.768202   -0.561409   -0.691348
H       0.333274   -0.305010    1.003373
H      -2.060964    0.019622    0.331959
H      -1.623528   -0.274543   -1.353418
H      -0.849535   -2.619061   -0.706803
H      -1.211871   -3.321844    1.487784
H      -2.922598   -3.703236   -0.061643
H      -4.006102   -1.045534    1.088775
H      -5.951899   -1.374018   -0.495834
H      -5.114802   -2.834833   -1.233925
