21

O      -0.021736    1.478715    0.256951
C       0.002648    0.090273    0.082872
C      -0.544059   -0.803867    1.167189
C      -1.322172   -0.589741   -0.120778
C      -2.603874    0.196982   -0.118018
C      -3.198973    0.661714   -1.479611
C      -4.607600    0.369094   -0.900903
O      -5.629320   -0.125495   -1.729240
C      -3.942547   -0.548811    0.158641
H       0.635210    1.705046    0.923188
H       0.849639   -0.277563   -0.496539
H      -0.072017   -1.763212    1.349865
H      -0.927331   -0.308667    2.053983
H      -1.312218   -1.422353   -0.821240
H      -2.501187    1.055467    0.549855
H      -2.972978    1.669594   -1.833832
H      -2.956457   -0.054499   -2.275223
H      -5.024968    1.263911   -0.428825
H      -5.293655   -0.910564   -2.174716
H      -3.895329   -1.582255   -0.207138
H      -4.344925   -0.555163    1.174477
