16

C      -0.081441    1.492357    0.001156
C      -0.027313    0.039205   -0.011766
C       0.016919   -1.169745   -0.032015
C       0.095178   -2.568474   -0.049038
C       1.179509   -3.438278   -0.022170
N       2.527303   -3.117438   -0.031137
N       0.765194   -4.740541   -0.047269
C      -0.552966   -4.689430   -0.095037
N      -1.013073   -3.420288   -0.099838
H       0.681515    1.925586   -0.656035
H      -1.055582    1.849818   -0.351657
H       0.074608    1.901888    1.006493
H       2.738769   -2.219205    0.380153
H       3.100060   -3.857011    0.351198
H      -1.210608   -5.545108   -0.125383
H      -1.972043   -3.118880   -0.129094
