20

C      -0.162438    1.584569   -0.149604
C       0.053915    0.082227   -0.014295
C       1.122151   -0.678302   -0.847882
N       1.663166   -1.367069    0.389231
C       2.217322   -0.329228    1.289728
C       3.002054    0.883448    0.928879
O       3.102189    1.419912   -0.150145
C       0.726148   -0.531522    1.222859
C      -0.026573   -1.063582    2.409942
H       0.774797    2.140914   -0.115546
H      -0.648940    1.812452   -1.104266
H      -0.817126    1.955480    0.647258
H      -0.911209   -0.423055   -0.133871
H       0.709195   -1.434700   -1.517482
H       1.859904   -0.075006   -1.372400
H       2.643652   -0.797031    2.176530
H       3.556109    1.288841    1.807232
H      -0.375323   -0.244974    3.049946
H      -0.904169   -1.632274    2.083977
H       0.601658   -1.724826    3.013077
