15

O      -0.540049    1.247998    0.728974
C      -0.028583    0.103971    0.061496
C       0.860318   -0.787533    0.976199
C      -0.069236   -1.858476    1.510163
O      -1.279802   -1.340733    2.070683
C      -1.314906   -1.849938    0.732610
C      -1.238532   -0.776086   -0.333605
H       0.205595    1.761029    1.055977
H       0.533920    0.414456   -0.830766
H       1.665217   -1.259611    0.399258
H       1.327333   -0.197170    1.772238
H       0.326570   -2.750918    1.990076
H      -1.927237   -2.736755    0.585698
H      -2.141335   -0.162597   -0.391487
H      -1.081555   -1.245519   -1.311557
