19

C      -0.201861    1.596076    0.048308
C       0.036089    0.082845    0.025064
C      -1.301133   -0.673265   -0.081018
N       0.923926   -0.267208   -1.096760
C       1.837337   -1.253251   -0.834743
N       2.538146   -1.889091   -1.687417
C       1.844904   -1.418683    0.676773
O       2.524599   -2.212435    1.272232
C       0.855420   -0.411413    1.245389
H       0.747848    2.135890    0.096659
H      -0.732499    1.919950   -0.853894
H      -0.810957    1.879941    0.912197
H      -1.819841   -0.411818   -1.009428
H      -1.139597   -1.755867   -0.078070
H      -1.960859   -0.421161    0.755541
H       0.628620   -0.106925   -2.048496
H       3.147516   -2.532691   -1.177693
H       1.431757    0.408749    1.689592
H       0.243686   -0.850131    2.036115
