23

C      -0.123765    1.503787    0.010782
C       0.005603   -0.002222   -0.012046
C      -0.794634   -0.822618    0.970054
C       0.713798   -0.786248    1.078650
C       1.569695   -1.877126    0.448462
C       2.934828   -2.102851    1.056559
C       0.870234   -3.011007   -0.263543
C       1.338216   -1.809273   -1.051403
C       0.372173   -0.661589   -1.354694
H       0.785699    1.989396   -0.363292
H      -0.959409    1.843023   -0.613762
H      -0.305228    1.870897    1.026290
H      -1.350985   -0.272903    1.723893
H      -1.295272   -1.727557    0.645164
H       1.141787   -0.276677    1.936459
H       2.859261   -2.518627    2.068505
H       3.523139   -2.803152    0.455232
H       3.500478   -1.165839    1.124972
H       1.437310   -3.927866   -0.395696
H      -0.190184   -3.182116   -0.117086
H       2.161567   -1.963755   -1.742149
H      -0.514124   -0.987563   -1.913038
H       0.881596    0.077302   -1.983865
