16

C      -1.582983    0.776001    0.574559
N      -0.418704    0.044002    0.071732
C       0.718021   -0.241953    0.843422
C       0.727387    0.241075    2.281164
O       1.654098   -0.851040    0.377308
C      -0.515377   -0.360900   -1.258818
N      -1.572620   -0.075303   -1.920292
C       0.567496   -1.095735   -1.884070
N       1.262248   -1.676103   -2.605351
H      -1.747164    1.674991   -0.024342
H      -2.479298    0.156863    0.490342
H      -1.425420    1.051846    1.612344
H      -0.090379   -0.195207    2.862476
H       1.677912   -0.070841    2.711844
H       0.644451    1.330103    2.345372
H      -1.505112   -0.430929   -2.871801
