23

C      -0.078124    1.606903    0.191246
C       0.006519    0.086990    0.019980
C      -1.375687   -0.561921   -0.108941
C      -1.372714   -2.113430   -0.085550
C      -0.547623   -2.715565   -1.231871
O      -0.747736   -2.589112    1.117643
C      -2.762905   -2.592195   -0.151499
C      -3.909396   -2.962331   -0.172683
C      -5.290054   -3.423761   -0.207457
H       0.917616    2.053105    0.277348
H      -0.580845    2.077157   -0.661466
H      -0.641614    1.873611    1.092478
H       0.611859   -0.141593   -0.864929
H       0.525603   -0.359597    0.874577
H      -2.013601   -0.223480    0.718701
H      -1.871994   -0.227702   -1.028417
H       0.502981   -2.436836   -1.122206
H      -0.620367   -3.804733   -1.205912
H      -0.913658   -2.360407   -2.198535
H      -1.357906   -2.418868    1.843401
H      -5.416495   -4.341702    0.377134
H      -5.974990   -2.672339    0.200635
H      -5.608515   -3.639811   -1.233281
