14

N       0.142985    1.387025    0.141174
C      -0.015852    0.008533    0.021068
C      -1.130147   -0.773685   -0.013364
N      -0.671535   -2.102492   -0.022023
C      -0.998859   -3.435719   -0.027190
N       0.097960   -4.161326   -0.012522
N       1.201159   -3.322043    0.001369
C       0.695648   -2.113594   -0.005692
N       1.121549   -0.800827   -0.016808
H       0.693507    1.790942   -0.609286
H      -0.743566    1.869156    0.206601
H      -2.169553   -0.506073   -0.070732
H      -2.007819   -3.811612   -0.052333
H       2.022195   -0.504974    0.320035
