20

C      -0.151827    1.611549   -0.014251
C       0.032345    0.102709    0.006380
O      -1.222587   -0.554537   -0.140621
C       1.092397   -0.578905   -0.897759
C       2.503046    0.040289   -0.883080
C       2.720008   -0.665383    0.468552
C       2.045831    0.011702    1.676647
C       0.720147   -0.604413    1.194667
N       1.474757   -1.539809    0.237130
H       0.782424    2.152729    0.154674
H      -0.548670    1.934418   -0.984978
H      -0.869498    1.908714    0.756603
H      -1.558777   -0.356074   -1.021954
H       0.718934   -0.998979   -1.836294
H       3.129318   -0.401094   -1.662698
H       2.605136    1.128501   -0.930616
H       3.679414   -1.159528    0.633893
H       2.366441   -0.447164    2.615315
H       2.119499    1.098391    1.779030
H       0.039210   -1.039752    1.927949
