17

C      -0.109515    1.262825   -0.038296
N      -0.314731   -0.116097   -0.459311
C      -0.868472   -0.975542    0.579926
C       0.595708   -0.620282   -1.362771
N       1.603226    0.059677   -1.761986
C       0.304172   -1.973220   -2.015756
O       1.210692   -2.648313   -2.454334
C      -1.078888   -2.359645   -2.215263
C      -2.214518   -2.693599   -2.435905
H       0.736059    1.363235    0.657102
H       0.101504    1.882079   -0.909980
H      -1.018818    1.614643    0.457644
H      -0.966555   -2.002824    0.230942
H      -0.234591   -0.977313    1.479724
H      -1.863803   -0.618341    0.862503
H       2.099096   -0.466397   -2.482091
H      -3.217076   -2.989420   -2.630637
