16

O      -0.345413    0.157567   -0.559109
C      -0.123594    1.181741    0.029837
C       1.213062    1.899483    0.012115
C       1.470122    2.668003    1.317447
C       1.607498    1.781317    2.473115
N       1.712056    1.059728    3.369337
C       2.404056    1.092339   -0.549124
O       2.606135    2.038154   -1.622581
C       1.429397    2.771879   -1.267742
H      -0.923685    1.698154    0.608532
H       2.383811    3.263927    1.220848
H       0.650616    3.371872    1.510310
H       3.278720    1.013888    0.105269
H       2.117909    0.102990   -0.918101
H       0.637068    2.681651   -2.021044
H       1.631950    3.833882   -1.079782
