22

C       0.070088    1.503308   -0.147357
C       0.025496   -0.011350   -0.071490
O       0.828551   -0.523036   -1.145172
C       0.915588   -1.871230   -1.273550
C       1.822908   -2.185855   -2.458162
O       1.710389   -1.248581   -3.504955
N       0.329611   -2.636043   -0.456475
C       0.422278   -4.081884   -0.541380
C       1.243914   -4.639505    0.625933
H       1.095568    1.870792   -0.047571
H      -0.332993    1.860539   -1.099560
H      -0.528902    1.932933    0.661061
H       0.420047   -0.388655    0.877630
H      -0.993052   -0.399677   -0.173030
H       2.857427   -2.246629   -2.077050
H       1.575337   -3.165673   -2.871818
H       1.601707   -0.387244   -3.085730
H      -0.598176   -4.479457   -0.476676
H       0.842319   -4.447155   -1.489882
H       2.283177   -4.299770    0.570051
H       0.829785   -4.300940    1.579808
H       1.240307   -5.733956    0.612063
