14

O      -0.190100    1.423355    0.081220
C      -0.013539    0.038017    0.036496
C       0.829453   -0.348987   -1.179937
O       1.205142    0.486671   -1.962620
C       0.657543   -0.474493    1.287272
N       0.617919   -1.751666    1.587697
O       1.358879   -1.882081    2.755389
C       1.813765   -0.673203    3.116947
C       1.413398    0.273616    2.232048
H       0.240877    1.763062   -0.720731
H      -0.976400   -0.488604   -0.076775
H       1.063865   -1.424273   -1.286390
H       2.399872   -0.645678    4.022404
H       1.595154    1.333611    2.239412
