21

C      -0.111609    1.588492    0.003200
C      -0.007843    0.067777   -0.030350
C       0.770767   -0.566043   -1.231347
C       2.075482   -0.291287   -0.411752
C       1.134164   -0.595089    0.799255
C       0.890526   -2.093569    0.547722
O      -0.447228   -2.592148    0.789408
C      -0.710491   -2.711321   -0.628876
C       0.649302   -2.083474   -0.989465
H       0.838225    2.097654   -0.181472
H      -0.822850    1.938313   -0.753382
H      -0.480892    1.923985    0.978498
H      -0.997346   -0.349866    0.167978
H       0.639727   -0.200271   -2.251065
H       2.925319   -0.961366   -0.578512
H       2.416525    0.742355   -0.448659
H       1.369091   -0.278052    1.816096
H       1.651023   -2.748660    0.984208
H      -0.814240   -3.762474   -0.926032
H      -1.612414   -2.165087   -0.932104
H       1.299779   -2.675590   -1.634410
