12

N      -0.035833    1.401996    0.147991
C       0.027285    0.024642    0.040382
N      -1.069172   -0.706372    0.000674
O      -0.641215   -2.032415   -0.018799
C       0.709790   -2.057075   -0.006915
C       1.199372   -0.784808    0.031402
C       1.347240   -3.313235   -0.028062
C       1.897340   -4.383161   -0.047070
H       0.691810    1.893472   -0.350388
H      -0.953014    1.771325   -0.064827
H       2.230711   -0.477016    0.062845
H       2.380864   -5.328959   -0.062825
