19

C      -0.067157   -1.196754   -0.047644
C      -0.045687    0.004179    0.003357
C       0.009769    1.459645    0.070899
C       1.446385    2.018580    0.024417
C       2.209166    1.693376   -1.287300
C       3.199237    2.862953   -1.503572
C       2.528411    4.036002   -0.816985
O       1.134756    4.174256   -1.138506
C       1.496474    3.535091    0.096100
H      -0.100073   -2.256846   -0.095503
H      -0.558886    1.893591   -0.761294
H      -0.484546    1.797600    0.991271
H       2.000729    1.625929    0.887164
H       2.703602    0.721510   -1.244879
H       1.496622    1.659657   -2.115270
H       4.161339    2.673052   -1.011455
H       3.405251    3.049379   -2.562065
H       3.058475    4.970331   -0.649128
H       1.193561    4.061327    0.998981
