17

C       0.063061    1.612019   -0.087987
C       0.019632    0.072085   -0.005854
C       0.625440   -0.505709   -1.211926
N       1.110586   -0.912046   -2.178449
C       0.715230   -0.461433    1.255720
C       0.023368   -0.168656    2.622793
N      -0.079820   -1.617011    2.804924
C       0.483168   -1.963404    1.600520
O       0.684641   -3.012987    1.057756
H       1.096589    1.967525   -0.121472
H      -0.449279    1.966521   -0.985430
H      -0.427089    2.049961    0.785768
H      -1.029346   -0.251670    0.015338
H       1.776694   -0.201076    1.243485
H       0.646780    0.339744    3.364214
H      -0.943625    0.341372    2.548156
H      -0.474867   -2.178628    3.544397
