18

C      -0.001899    1.367843    0.009100
O      -0.020003   -0.041010    0.002526
C      -1.321429   -0.573523    0.011622
C      -1.177949   -2.095730    0.002586
N      -2.470524   -2.754502    0.011185
N      -3.108358   -3.043092    1.141223
C      -4.265180   -3.561747    0.724141
C      -4.276888   -3.557206   -0.676893
N      -3.127170   -3.035805   -1.109888
H       1.044923    1.679962    0.001444
H      -0.505722    1.785296   -0.876569
H      -0.490138    1.776794    0.907374
H      -1.878590   -0.257055    0.908414
H      -1.894696   -0.248009   -0.871702
H      -0.646258   -2.416226   -0.894544
H      -0.629592   -2.425174    0.886369
H      -5.004434   -3.908214    1.428314
H      -5.027811   -3.899163   -1.370849
