17

C      -0.249650    1.532266    0.080611
C      -0.028955    0.062149    0.009152
C       0.213782   -0.776481   -1.058716
N       0.346721   -2.055264   -0.601019
N       0.200888   -2.065913    0.691998
N      -0.025994   -0.790317    1.065956
N       0.309978   -0.381452   -2.405401
C       1.263856   -1.121321   -3.250114
C      -0.194881   -1.328417   -3.415071
H       0.506478    2.031523    0.696944
H      -0.190465    1.938857   -0.930935
H      -1.233834    1.780156    0.493912
H      -0.166582   -0.585560    2.042449
H       1.815639   -0.508108   -3.956612
H       1.825162   -1.919337   -2.773662
H      -0.605337   -2.264396   -3.048468
H      -0.725420   -0.868911   -4.243935
