16

C      -0.125902    1.518947   -0.404569
C      -0.022045    0.042690   -0.112237
C       0.940224   -0.815357   -0.814743
O       1.164028   -0.397431    0.538880
C      -1.293430   -0.640123    0.447857
C      -1.780734   -0.000613    1.671134
C      -2.160660    0.525017    2.680591
C      -2.341896   -0.686149   -0.585452
N      -3.139402   -0.722332   -1.419974
H       0.830083    1.893479   -0.776171
H      -0.897043    1.710828   -1.157087
H      -0.388133    2.069403    0.503171
H       0.734372   -1.876287   -0.949429
H       1.603076   -0.373775   -1.556117
H      -1.014512   -1.675566    0.680477
H      -2.502075    0.985276    3.575323
