18

C      -0.021079    1.501382   -0.015101
C       1.509716    1.810844   -0.029764
C       2.053942    0.385213    0.019051
C       1.162405   -0.456926   -0.972424
C       1.457088   -1.895662   -0.567566
C       1.460433   -1.848703    0.767351
C       1.167416   -0.385047    1.071583
C       0.032145   -0.023508    0.038376
H      -0.530108    1.930083    0.854029
H      -0.534496    1.868123   -0.909630
H       1.823818    2.344798   -0.932269
H       1.828177    2.406898    0.831386
H       3.136444    0.240187    0.021503
H       1.100193   -0.199268   -2.031897
H       1.619059   -2.728676   -1.236918
H       1.625875   -2.632660    1.492761
H       1.110338   -0.053590    2.110631
H      -0.908791   -0.577594    0.060162
