21

O      -0.003759    1.424309   -0.277286
C       0.029679    0.017871   -0.083789
C      -1.401420   -0.501431   -0.182118
C      -1.481638   -2.017551   -0.036975
C      -1.350411   -2.672059    1.399865
C      -2.863649   -2.317090    1.597298
C      -2.906712   -2.690585    0.076005
C      -2.490571   -4.165295    0.152132
C      -1.471757   -4.152840    1.017762
H       0.895185    1.758636   -0.209078
H       0.657078   -0.474656   -0.844948
H       0.453643   -0.238071    0.900601
H      -2.006988    0.022733    0.563172
H      -1.799389   -0.213710   -1.163730
H      -0.838141   -2.489087   -0.787715
H      -0.580942   -2.377008    2.113808
H      -3.434710   -2.951836    2.278452
H      -3.056423   -1.262606    1.808025
H      -3.734526   -2.408651   -0.575401
H      -2.935635   -4.986679   -0.391274
H      -0.851897   -4.961436    1.378452
