21

C       0.747664    0.018255   -1.311967
C       0.058025    0.010976    0.052756
C       0.040562    1.389878    0.693294
O       0.550368    2.371395    0.211846
C      -1.369915   -0.585669    0.045469
C      -2.344603    0.185330   -0.834577
C      -1.426812   -2.130872   -0.088498
C      -1.938619   -2.105534    1.363820
O      -1.870633   -0.666055    1.414813
H       1.787307    0.337709   -1.209514
H       0.736592   -0.977232   -1.765987
H       0.264846    0.719356   -1.996975
H       0.629041   -0.618340    0.753418
H      -0.483595    1.431245    1.670417
H      -2.040998    0.149170   -1.885232
H      -3.345546   -0.246387   -0.750497
H      -2.400948    1.235958   -0.531877
H      -2.137181   -2.499378   -0.830394
H      -0.463995   -2.621501   -0.240205
H      -2.960792   -2.470839    1.517452
H      -1.283672   -2.573345    2.108639
