17

C       0.020377    1.458622    0.001358
O       1.199043    0.644030   -0.056971
C      -0.081541   -0.000553    0.012320
C      -0.401451   -0.839985    1.247781
C      -0.274517   -2.311136    0.771436
C      -0.559924   -2.247737   -0.721177
N      -1.774870   -1.468491   -1.041500
C      -0.437889   -0.840571   -1.180077
H      -0.115779    2.015476    0.928097
H      -0.209685    2.014892   -0.906872
H       0.273131   -0.594182    2.070396
H      -1.426171   -0.636197    1.567874
H       0.745277   -2.682459    0.922276
H      -0.956948   -2.980538    1.303267
H      -0.286266   -3.078712   -1.363116
H      -2.105160   -1.732645   -1.966531
H      -0.061039   -0.562323   -2.158064
