16

O       0.073384   -0.011358   -0.312922
C       0.010230    1.173429   -0.077096
C      -1.285740    1.946835    0.080282
C      -1.301737    3.109138   -0.935816
C      -0.152943    4.110291   -0.714098
C       1.159426    3.462022   -0.306446
O       1.236937    3.017054    1.042618
C       1.252961    2.014173    0.015027
H      -2.118922    1.259796   -0.081078
H      -1.344665    2.342424    1.100763
H      -1.224688    2.687045   -1.945247
H      -2.263472    3.629502   -0.891009
H       0.005940    4.698549   -1.624058
H      -0.416802    4.823462    0.076404
H       2.071294    3.945102   -0.658706
H       2.190868    1.476896   -0.109714
