19

C       0.088822    1.338814   -0.070797
O      -0.016695   -0.046269    0.168691
C      -1.308594   -0.592246    0.052332
C      -2.263338   -0.077661    1.130581
C      -1.975669   -0.610160   -1.387212
C      -1.998655   -2.137742   -1.291269
N      -0.577548   -2.547562   -1.212397
C      -1.286422   -2.124621    0.016384
H       1.155489    1.576536   -0.080738
H      -0.340843    1.623188   -1.042772
H      -0.393810    1.944622    0.710038
H      -2.489304    0.984474    0.996789
H      -3.210294   -0.624528    1.098724
H      -1.817831   -0.214356    2.121507
H      -2.958729   -0.135118   -1.407983
H      -1.352906   -0.228484   -2.198733
H      -2.760637   -2.816083   -1.653645
H      -0.557503   -3.567484   -1.193755
H      -1.366968   -2.786753    0.870880
