27

C       0.057161    1.563404    0.148931
C       0.081011    0.036376    0.040338
C       0.660623   -0.462796   -1.288247
C       0.674168   -1.992026   -1.389617
C       1.397952   -2.573803   -2.621022
C       1.352889   -4.109460   -2.551557
C       0.766030   -2.081477   -3.933777
O       2.748831   -2.103628   -2.479196
C       3.668576   -2.414370   -3.499267
H       1.066134    1.981044    0.058592
H      -0.554494    2.007605   -0.644522
H      -0.354531    1.891417    1.108768
H       0.668273   -0.380732    0.869218
H      -0.937653   -0.355426    0.165869
H       0.076443   -0.034007   -2.112892
H       1.684743   -0.092297   -1.406581
H       1.169779   -2.401524   -0.500364
H      -0.354012   -2.375378   -1.379665
H       0.316392   -4.460393   -2.530572
H       1.836095   -4.571935   -3.417394
H       1.855081   -4.463170   -1.646295
H       0.905624   -1.004686   -4.058277
H       1.198624   -2.584729   -4.803418
H      -0.308309   -2.290733   -3.936695
H       3.402749   -1.962476   -4.465390
H       4.630635   -2.001529   -3.183349
H       3.793844   -3.496412   -3.648150
