19

O       0.025127   -0.100512    0.020916
C       0.037645    1.103837    0.005592
C       1.276240    1.963311    0.015320
C       1.268916    3.059437   -1.098087
C       1.383916    4.318319   -0.239840
C       2.350645    4.038391    0.955312
C       1.500559    4.976529    1.844853
C       0.476065    4.159797    1.022977
C       1.347288    2.878770    1.252984
H      -0.916740    1.684011   -0.011227
H       2.144332    1.301059   -0.045952
H       2.103628    2.935161   -1.793590
H       0.345588    3.047812   -1.689246
H       1.427993    5.287674   -0.739765
H       3.438307    3.954699    0.909873
H       1.527083    4.792320    2.922442
H       1.561974    6.046816    1.628664
H      -0.612780    4.229088    1.056450
H       1.355341    2.408965    2.238215
