22

C       0.050008   -0.049641   -1.831815
C      -0.085158    0.104415   -0.310854
C       0.243613    1.535611    0.139672
C      -1.472967   -0.380540    0.225465
C      -2.689352    0.067686   -0.589625
O      -2.730406    1.488647   -0.628959
C      -1.477525   -1.909888    0.274731
N      -1.112898   -2.453341    1.473344
O      -1.764878   -2.603064   -0.685638
H       1.081119    0.149693   -2.141183
H      -0.218120   -1.058606   -2.156136
H      -0.595057    0.664612   -2.353673
H       0.660661   -0.556974    0.153035
H      -0.470082    2.249122   -0.275733
H       0.213608    1.626018    1.231443
H       1.250832    1.814141   -0.189158
H      -1.587905    0.009064    1.245009
H      -2.628885   -0.366932   -1.593611
H      -3.598203   -0.336504   -0.117354
H      -3.458554    1.747020   -1.201276
H      -0.811086   -1.890386    2.248593
H      -0.997830   -3.452573    1.525920
