19

C      -0.116197   -1.185041    0.040583
C      -0.004898    0.010881    0.028768
C       0.092143    1.474015   -0.012390
C       1.487181    1.925485   -0.056018
C       2.618720    2.324185   -0.114430
C      -0.713845    2.049619   -1.198843
C      -2.255721    1.873468   -1.195713
C      -2.375611    3.320121   -1.749288
C      -0.921444    3.585868   -1.271367
H      -0.203058   -2.243190    0.060411
H      -0.361740    1.868558    0.909751
H       3.623241    2.665920   -0.156527
H      -0.280812    1.671111   -2.128983
H      -2.673059    1.056625   -1.787412
H      -2.645961    1.796681   -0.175404
H      -2.452862    3.332123   -2.840005
H      -3.165266    3.953507   -1.339572
H      -0.899165    4.038497   -0.274451
H      -0.258065    4.156003   -1.924350
