17

C      -0.784254    1.481216   -0.227082
C       0.328522    0.497435    0.178377
C       1.054925   -0.050143   -0.961252
C       1.636209   -0.493146   -1.918996
C       2.350121   -1.020600   -3.058181
C       3.640954   -1.836722   -2.797415
C       2.851666   -2.982554   -3.427439
O       3.025856   -4.123914   -3.705145
O       1.719715   -2.234804   -3.631023
H      -0.370760    2.332700   -0.773969
H      -1.520133    0.991171   -0.869796
H      -1.298055    1.858269    0.661765
H       1.039184    0.997165    0.849042
H      -0.100847   -0.329605    0.757801
H       2.449284   -0.276238   -3.852694
H       4.525075   -1.529970   -3.357614
H       3.893275   -1.987388   -1.747749
