17

O      -0.911549    1.656685   -0.209344
C       0.144631    1.105835   -0.372069
C       1.501947    1.816806   -0.257369
O       2.501717    1.151138   -0.402191
C       1.480274    3.296760    0.031295
C       2.874899    3.908419    0.176500
C       2.807377    5.394776    0.425461
C       3.761010    6.335397   -0.173080
O       2.436463    6.205645   -0.694347
H       0.246010    0.026581   -0.614144
H       0.921005    3.790005   -0.775225
H       0.863595    3.455112    0.926470
H       3.411011    3.422108    0.999890
H       3.454368    3.715727   -0.731541
H       2.323202    5.693228    1.358094
H       3.978195    7.279979    0.323511
H       4.554890    5.955564   -0.815091
