19

C      -0.050801    1.561846   -0.056322
C       0.043629    0.036573   -0.044188
N       0.753746   -0.506184   -1.217531
C       2.096979   -0.823430   -1.080447
O       2.833463   -1.244541   -1.938635
C       0.002979   -0.637970   -2.409735
O      -1.162196   -0.301479   -2.407372
C       0.670653   -1.204968   -3.667002
N      -0.225559   -1.311914   -4.804413
H       0.943073    2.020584   -0.061744
H      -0.600231    1.902431   -0.936279
H      -0.581216    1.909636    0.835367
H       0.573822   -0.310601    0.846932
H      -0.954078   -0.403614   -0.036120
H       2.439548   -0.641664   -0.044541
H       1.532382   -0.580354   -3.920633
H       1.102533   -2.182273   -3.432167
H      -1.020445   -1.891420   -4.548145
H      -0.629930   -0.398984   -4.995192
