17

C      -0.058378    1.506776    0.054581
C      -0.010217    0.002105    0.008729
C       0.079440   -0.655391   -1.229136
N       0.178670    0.033873   -2.439852
C       0.125237   -2.056755   -1.216303
O       0.203761   -2.674827   -2.431440
C       0.085154   -2.730878   -0.003833
C      -0.003327   -1.980642    1.164412
N      -0.051983   -0.649576    1.178057
H       0.801043    1.950945   -0.462138
H      -0.963288    1.901768   -0.428500
H      -0.058739    1.834741    1.094422
H      -0.312470    0.915589   -2.463642
H      -0.037230   -0.538456   -3.243885
H       0.209590   -3.628709   -2.303097
H       0.119172   -3.816221    0.029557
H      -0.035239   -2.478095    2.130220
