19

C       0.059747    1.558210   -0.076898
C       0.072903    0.037640    0.087402
O       0.647182   -0.345418    1.336166
C      -1.325914   -0.556900    0.073808
C      -2.054531   -0.739558   -1.278607
C      -1.303342   -2.074579   -1.594471
O      -2.516717   -2.838688   -1.858612
C      -2.858195   -1.965248   -0.742419
C      -1.471534   -2.090779   -0.039472
H       1.078048    1.963467   -0.048280
H      -0.384030    1.848778   -1.034648
H      -0.515318    2.023392    0.730213
H       0.653871   -0.402686   -0.741389
H       1.514961    0.065490    1.403809
H      -1.929897   -0.100864    0.867110
H      -2.403174    0.000169   -1.999811
H      -0.428535   -2.264625   -2.214738
H      -3.862938   -2.010650   -0.323180
H      -1.152256   -2.873413    0.646714
