17

C       0.088467    1.303630    0.131051
O      -0.243198   -0.050314   -0.156536
C       0.550562   -0.666678   -1.050629
N       0.326863   -1.860176   -1.387359
C       1.165932   -2.480488   -2.350859
C       1.544623   -3.936420   -2.091547
C       0.491692   -3.603105   -3.113353
O      -0.849378   -3.863942   -2.858941
H       1.104912    1.390730    0.533449
H      -0.004966    1.936746   -0.759471
H      -0.624033    1.639898    0.884760
H       1.377803   -0.053662   -1.436867
H       1.891609   -1.851800   -2.869178
H       2.521931   -4.269156   -2.424767
H       1.201514   -4.361029   -1.154955
H       0.737491   -3.724691   -4.164193
H      -1.098728   -3.276040   -2.130253
