15

C      -0.119808    1.517990   -0.077494
C       1.426186    1.707619    0.053718
C       2.139510    2.127558    1.385012
O       2.242070    0.920931    2.226436
C       1.549454   -0.026716    1.546426
C       1.390253    0.218965    0.222977
N      -0.001828   -0.050424   -0.051362
C      -0.384556   -0.740835    1.112785
N       0.521661   -0.793062    2.064090
H      -0.706260    1.865097    0.773714
H      -0.555383    1.849655   -1.018992
H       1.892289    2.164684   -0.821075
H       3.154712    2.472879    1.172654
H       1.619869    2.896121    1.968921
H      -1.339121   -1.250326    1.178148
