21

C       0.002665    1.505450    0.396580
C      -0.052597    0.007373    0.213748
C      -1.268740   -0.691096   -0.219083
O      -0.188143   -0.475594   -1.128598
C       1.370738    2.094178    0.049492
C       1.860891    2.087780   -1.443332
C       2.081875    3.603373   -1.357033
C       0.787051    4.290116   -1.034284
C       1.549133    3.620150    0.078431
H      -0.778159    1.962374   -0.221695
H      -0.238696    1.740840    1.442764
H       0.666900   -0.561997    0.806913
H      -1.436760   -1.727424    0.071415
H      -2.171469   -0.115569   -0.421714
H       2.131724    1.621238    0.680341
H       2.778754    1.511913   -1.577186
H       1.130815    1.753144   -2.185941
H       2.926528    4.140530   -1.770857
H       0.823037    5.374911   -1.018741
H      -0.154784    3.886954   -1.399214
H       1.905799    4.185692    0.931837
