22

C       0.121442    1.598890    0.239993
C      -0.007557    0.084151    0.001466
C       0.625042   -0.378661   -1.329453
C      -0.063281    0.183069   -2.576215
N       0.572205   -0.338330   -3.780785
C       0.037460   -1.591838   -4.304117
C      -0.225928   -0.302146   -5.000179
C       0.676844   -0.656896    1.134068
O       0.156238   -1.473864    1.848202
H       1.172815    1.908625    0.241088
H      -0.393070    2.168800   -0.537495
H      -0.315297    1.883299    1.202301
H      -1.062789   -0.210688    0.026226
H       1.686197   -0.101888   -1.357990
H       0.586917   -1.473893   -1.378681
H      -1.143905   -0.053364   -2.541767
H       0.024842    1.274721   -2.606004
H       0.767903   -2.293783   -4.695579
H      -0.799022   -2.049957   -3.777464
H      -1.237655    0.096527   -4.937117
H       0.309236   -0.043029   -5.909228
H       1.753242   -0.385979    1.263347
