15

N       0.062524    1.316212   -0.204975
C      -0.045574   -0.035659   -0.043939
N      -1.124719   -0.720468    0.024407
C      -0.711067   -2.108150    0.056974
C       0.055294   -2.593787   -1.175811
C       0.820636   -2.067974   -0.002663
O       1.154310   -0.693237   -0.017231
C      -1.464992   -3.030692    0.851211
C      -2.085611   -3.822520    1.509481
H       0.911816    1.725249    0.154590
H      -0.780401    1.821253    0.021934
H       0.098464   -3.666294   -1.327018
H      -0.018323   -1.989864   -2.074013
H       1.502786   -2.667854    0.584214
H      -2.641746   -4.513546    2.092824
