21

O       0.073303    1.416432    0.283687
C       0.005113    0.023705    0.072832
C      -1.433067   -0.515046   -0.050865
C      -2.088052   -0.070845   -1.360572
O      -2.132358    1.357321   -1.397057
C      -1.456294   -2.038835    0.052411
C      -1.129881   -2.680631    1.421304
O      -2.367289   -3.420631    1.420914
C      -2.818587   -2.752534    0.227963
H      -0.530923    1.816128   -0.356131
H       0.574955   -0.282760   -0.824545
H       0.499302   -0.443785    0.932827
H      -2.015846   -0.093492    0.779813
H      -1.504767   -0.461408   -2.209683
H      -3.105263   -0.482946   -1.437655
H      -2.420499    1.636474   -2.270869
H      -0.864359   -2.479608   -0.756747
H      -0.256597   -3.341205    1.465163
H      -1.079369   -1.967237    2.255731
H      -3.662078   -2.076929    0.431743
H      -3.114228   -3.461821   -0.554052
