21

C       0.059398    1.543965    0.034942
C      -0.006443    0.032317    0.008542
C      -1.303784   -0.571987   -0.530856
C      -2.107216   -1.305399    0.564067
N      -1.384469   -2.289518    1.371111
C      -0.408718   -3.144714    0.704152
C       0.053184   -2.030279    1.583247
C       0.689216   -0.768176    1.063222
N       1.277130   -0.631380   -0.283518
H       1.009110    1.882321    0.456359
H      -0.025122    1.952804   -0.978782
H      -0.757215    1.961946    0.634719
H      -1.937000    0.219163   -0.945173
H      -1.092948   -1.247975   -1.367970
H      -2.506412   -0.563961    1.267126
H      -2.967628   -1.812982    0.114432
H      -0.362093   -4.168993    1.065144
H      -0.267986   -3.054077   -0.370576
H       0.385631   -2.297695    2.583647
H       1.253715   -0.232588    1.823055
H       1.128033   -1.485762   -0.815630
