15

C      -0.044592    1.349764   -0.302173
C       1.427657    1.558563    0.100255
C       1.300050    0.165774    0.744761
C       2.257416   -1.002018    0.442293
O       2.648196   -1.089399    1.828080
C       1.648096   -0.125194    2.216486
O      -0.067409    0.050702    0.331998
H      -0.768386    2.036281    0.151420
H      -0.243249    1.280594   -1.377665
H       2.139289    1.621577   -0.725146
H       1.615562    2.375238    0.799833
H       1.733640   -1.902320    0.095194
H       3.108167   -0.791308   -0.217432
H       2.071371    0.700665    2.801473
H       0.815649   -0.581310    2.768166
