22

C      -0.293479    1.573517    0.018872
C      -0.173677    0.043387    0.035675
C       0.401285   -0.483804   -1.291899
C       0.228621   -2.001295   -1.384392
C       1.487346   -2.840862   -1.388949
O      -0.877843   -2.487600   -1.436852
N       0.620651   -0.561296    1.119896
C       1.655219    0.195748    1.816973
C       0.386275   -0.182396    2.501953
H       0.656974    2.055862   -0.231996
H      -1.024441    1.873758   -0.737755
H      -0.637372    1.972066    0.978380
H      -1.177826   -0.384179    0.137917
H      -0.148806   -0.036691   -2.127209
H       1.453381   -0.191926   -1.380745
H       2.026779   -2.663313   -0.451818
H       1.239113   -3.898755   -1.483830
H       2.150887   -2.536202   -2.206608
H       2.575948   -0.344653    2.020100
H       1.793197    1.248458    1.583323
H      -0.316436    0.620916    2.716142
H       0.361548   -1.002278    3.215054
