12

O       0.003495   -0.068660   -0.058031
C      -0.057760    1.139119   -0.020377
C       1.185609    1.940818    0.020936
N       2.152564    2.574102    0.053370
C      -1.307571    1.926178   -0.011551
C      -2.490950    1.349905   -0.788417
C      -2.510666    1.302178    0.694864
H      -1.194904    3.002616    0.024513
H      -3.119473    2.065759   -1.304476
H      -2.292890    0.426157   -1.319526
H      -2.326009    0.346027    1.170567
H      -3.153314    1.983914    1.238967
