19

C       0.014587   -1.190256   -0.031009
C       0.029390    0.012777   -0.021969
C       0.047813    1.453426   -0.000821
C      -0.300586    2.287558    1.297647
C       0.465021    3.406936    0.512939
C       1.384664    2.262229    0.017077
C      -0.517701    3.644595   -0.651391
C      -0.196189    3.138624   -2.037317
C      -0.830282    2.210186   -1.033345
H       0.004364   -2.251755   -0.040235
H      -1.361088    2.446830    1.508952
H       0.224457    1.927817    2.186177
H       0.874041    4.282643    1.015577
H       2.043130    1.900264    0.807857
H       1.952796    2.370226   -0.906462
H      -1.298171    4.385609   -0.520943
H      -0.861022    3.486226   -2.822479
H       0.824283    3.005130   -2.375083
H      -1.838685    1.846465   -1.189690
