16

C       0.021874    1.408768    0.005421
O       1.302343    1.960881   -0.038495
C       2.047994    1.701684    1.157630
C       1.891464    0.257201    1.524059
C       2.557262   -0.587444    2.384375
N       1.981113   -1.825716    2.280745
C       0.944480   -1.805663    1.370076
C       0.879143   -0.518057    0.894931
O       0.026112   -0.012896   -0.042793
H      -0.508343    1.729958    0.919083
H      -0.508524    1.742390   -0.887475
H       3.082859    1.969352    0.924073
H       1.702271    2.375639    1.958973
H       3.386541   -0.412852    3.050838
H       2.269214   -2.637109    2.796569
H       0.368057   -2.683927    1.136916
