19

O       0.262463    1.205498    0.226774
C       0.001505   -0.051218   -0.320967
C      -1.450355   -0.452359   -0.035361
O      -2.174227    0.305653    0.594379
N      -1.847811   -1.656514   -0.512841
C      -3.179244   -2.203862   -0.290141
C      -3.119561   -3.632235    0.192697
C      -4.223091   -4.571407   -0.111557
N      -2.912578   -4.735458   -0.767662
H      -0.577034    1.465065    0.644062
H       0.163006   -0.051972   -1.411327
H       0.671076   -0.817840    0.102015
H      -1.176808   -2.225742   -1.005629
H      -3.658037   -1.554361    0.447262
H      -3.777193   -2.151286   -1.212147
H      -2.568477   -3.768123    1.121018
H      -4.482384   -5.350432    0.598713
H      -5.057705   -4.202850   -0.702864
H      -2.973253   -4.379249   -1.720165
