12

C      -0.033964    1.457433    0.009544
N      -0.040291    0.011086    0.001161
C      -1.146483   -0.838678    0.004252
C      -0.671572   -2.089323   -0.006711
O       0.705144   -2.064110   -0.016576
C       1.115002   -0.743877   -0.011106
O       2.262095   -0.382594   -0.017880
H       1.010351    1.773059    0.002527
H      -0.537846    1.859739   -0.875531
H      -0.522668    1.849437    0.907674
H      -2.157412   -0.468913    0.013598
H      -1.142263   -3.055965   -0.009291
