24

C      -2.050473    1.528350   -1.294073
C      -1.912423    0.003265   -1.301680
C      -1.677236   -0.579021    0.099419
C      -1.628545   -2.101006    0.153269
C      -0.510851   -2.784475   -0.625952
C       0.901467   -2.427402   -0.146102
C      -2.057330   -2.759242    1.444715
C      -2.953539   -2.824285    0.229498
H      -2.210272    1.921452   -2.303071
H      -2.896975    1.846517   -0.675028
H      -1.150740    2.006066   -0.889897
H      -2.815941   -0.448061   -1.731062
H      -1.086500   -0.280494   -1.965537
H      -0.749202   -0.161172    0.512982
H      -2.479798   -0.232663    0.763980
H      -0.649757   -3.869890   -0.548720
H      -0.604475   -2.548070   -1.693731
H       1.656689   -2.994053   -0.699845
H       1.122450   -1.364452   -0.286198
H       1.024673   -2.653653    0.918423
H      -1.548041   -3.668031    1.749573
H      -2.362620   -2.125949    2.271340
H      -3.861632   -2.229763    0.235946
H      -3.052860   -3.776116   -0.282214
