17

C       0.079598    1.500559    0.009606
C      -0.044569   -0.021178    0.003209
C      -1.487063   -0.473583    0.012271
O      -2.446267    0.257806    0.023710
N      -1.686257   -1.877928    0.006469
C      -2.901438   -2.513242    0.012823
C      -2.640663   -3.855962    0.003673
C      -1.221505   -3.946767   -0.008060
N      -0.646736   -2.758343   -0.006403
H       1.133136    1.792214    0.002772
H      -0.406737    1.939520   -0.865134
H      -0.392960    1.930994    0.896053
H       0.445274   -0.468403   -0.868893
H       0.458662   -0.476714    0.863322
H      -3.812277   -1.939255    0.023094
H      -3.357057   -4.661216    0.005118
H      -0.608432   -4.836831   -0.017604
