22

C       0.052676    1.531241    0.120796
C       0.019687    0.019539   -0.031157
C       0.768240   -0.508007   -1.248885
C       0.775337   -2.041194   -1.219880
C       1.718228   -2.639042   -2.265981
N       1.138345   -2.564853    0.097905
C       1.048692   -1.814711    1.116328
C       1.462038   -2.278865    2.482889
O       0.593125   -0.530280    1.171696
H       1.085545    1.890031    0.165860
H      -0.444897    2.007934   -0.729163
H      -0.457768    1.836471    1.038326
H      -1.025060   -0.322031   -0.075817
H       0.300951   -0.132157   -2.165517
H       1.799314   -0.131602   -1.227170
H      -0.241535   -2.398183   -1.443663
H       2.748865   -2.318880   -2.079767
H       1.691891   -3.730594   -2.216905
H       1.435698   -2.324051   -3.276174
H       2.224071   -1.609484    2.894961
H       0.607927   -2.254083    3.167492
H       1.855307   -3.292578    2.420816
