18

O      -0.124719    1.489416    0.048615
C       0.017732    0.071317    0.017982
C      -1.399875   -0.506261   -0.000469
O      -2.116320   -0.008596    1.111407
C      -2.107969   -0.177562   -1.351030
N      -1.804626   -1.340977   -2.163727
C      -1.461760   -2.463238   -1.455014
O      -1.268854   -3.565891   -1.915700
C      -1.377993   -2.039409    0.014186
H       0.729059    1.884352    0.244769
H       0.577627   -0.258462   -0.868777
H       0.535130   -0.291717    0.916584
H      -1.870353    0.922808    1.190063
H      -3.183337   -0.061431   -1.164652
H      -1.728198    0.745408   -1.797913
H      -2.033937   -1.414401   -3.142622
H      -0.500576   -2.474861    0.497293
H      -2.264808   -2.407165    0.540539
