21

C      -0.014493    1.529879   -0.111485
C      -0.032785    0.038043    0.108834
O       1.208035   -0.668508   -0.054173
C       0.599139   -0.637393    1.249484
C       1.368552    0.062281    2.371526
C       1.908734   -1.089075    3.257784
C       0.946675   -2.250892    3.037858
C      -0.527728   -1.962837    3.138842
C       0.145596   -1.967150    1.783533
H       0.830937    2.000269    0.395140
H       0.058276    1.756742   -1.180472
H      -0.940313    1.980852    0.262770
H      -0.881266   -0.473428   -0.352814
H       2.165570    0.688306    1.967708
H       0.697496    0.713524    2.942039
H       2.908336   -1.383678    2.919691
H       1.994840   -0.795602    4.309242
H       1.289498   -3.254517    3.262609
H      -1.182320   -2.799463    3.357136
H      -0.864101   -1.021516    3.562404
H      -0.106720   -2.735411    1.062467
