18

O      -0.274378    0.012009    0.305783
C      -0.080903    1.186602    0.163378
N       1.148704    1.830893   -0.026079
C       1.117092    3.298218   -0.171495
C       2.336927    3.973920    0.444299
C       3.606353    3.382052   -0.166689
C       3.646735    1.873676    0.090922
C       2.357863    1.103450   -0.190496
O       2.373785   -0.068269   -0.463777
H      -0.898194    1.936630    0.200603
H       1.059013    3.558078   -1.237892
H       0.196828    3.658861    0.296017
H       2.272960    5.051461    0.262242
H       2.334127    3.824787    1.531107
H       3.615584    3.578762   -1.246394
H       4.502231    3.855568    0.246499
H       4.436304    1.373221   -0.473341
H       3.860620    1.691207    1.153576
