21

O       0.431239    0.567258   -0.683358
C      -0.146158   -0.607559   -0.150698
C      -1.622326   -0.409651    0.154671
O      -2.249048   -0.064979   -1.068780
C      -3.607743    0.294539   -0.937828
C      -4.128005    0.665334   -2.314647
C      -4.433945   -0.480660   -3.302021
C      -5.882433    0.044289   -3.233843
O      -5.519713    1.045739   -2.255660
H      -0.164555    0.852962   -1.385949
H      -0.034332   -1.460494   -0.839471
H       0.393138   -0.847562    0.771491
H      -2.063540   -1.327173    0.577111
H      -1.750195    0.403169    0.886884
H      -4.198653   -0.540596   -0.527424
H      -3.728512    1.152093   -0.255893
H      -3.506695    1.469327   -2.731874
H      -3.946571   -0.414255   -4.275003
H      -4.280133   -1.480097   -2.890918
H      -6.260831    0.499257   -4.157440
H      -6.637855   -0.649221   -2.846541
