22

C      -0.582125    1.238706   -0.095863
C       0.028768   -0.153901   -0.160618
C       1.347498   -0.336736   -0.976498
O       2.011007    0.907511   -1.097918
C       1.913351   -1.242021    0.156152
C       0.772053   -0.756745    1.053792
C       0.848416   -0.199305    2.427424
N       0.247297   -1.510663    2.176165
C      -1.197513   -1.614195    2.318321
H       0.152976    1.971692    0.242450
H      -0.936485    1.552489   -1.083599
H      -1.437920    1.263347    0.586869
H      -0.714230   -0.873842   -0.525749
H       1.230410   -0.814531   -1.958138
H       2.904134    0.735678   -1.412035
H       1.840338   -2.310999   -0.065789
H       2.932743   -1.009290    0.476982
H       1.787085   -0.202720    2.977130
H       0.183056    0.628976    2.670498
H      -1.744998   -0.702239    2.030482
H      -1.565503   -2.441547    1.702220
H      -1.438944   -1.838974    3.362162
