18

O      -0.023205   -0.160744   -0.075288
C      -0.008444    1.053686   -0.023962
C      -1.342125    1.805928    0.010682
C      -1.449155    3.332094   -0.051585
O      -1.263174    3.990447    1.186120
C      -0.022548    3.697176    1.825909
C       1.172641    3.918542    0.949793
C       1.673530    3.003188    0.115594
N       1.220016    1.697915   -0.105215
H      -1.876603    1.394641   -0.853435
H      -1.884465    1.434347    0.887197
H      -0.776450    3.733056   -0.822398
H      -2.470878    3.588359   -0.347781
H       0.008329    4.355692    2.697552
H      -0.022123    2.659823    2.196079
H       1.635562    4.899454    0.947275
H       2.561196    3.232107   -0.468808
H       1.940075    1.017144   -0.311623
