17

O       0.008400    1.348640    0.021312
C       0.033886   -0.045925    0.044470
C       1.166955   -0.687161   -0.743917
O       1.163012   -2.115719   -0.643945
C       0.065093   -2.618372    0.079816
C      -1.260651   -2.137679   -0.544900
C      -1.316541   -0.726451    0.014110
C      -0.456979   -0.788213    1.260620
O       0.060475   -2.095758    1.402066
H       0.731372    1.671081    0.572343
H       1.096141   -0.391387   -1.799916
H       2.132316   -0.324673   -0.362586
H       0.204049   -3.697449    0.138582
H      -1.218388   -2.198993   -1.634715
H      -2.104686   -2.734078   -0.184958
H      -2.211171   -0.119323   -0.032172
H      -0.686859   -0.297277    2.197619
