20

C      -0.107343    1.548582   -0.077478
C       0.089400    0.051506    0.050576
C       1.369013   -0.697512   -0.180657
C       2.577548    0.084782    0.349057
C       1.945160    0.012129    1.775594
O       1.709422    1.232202    2.474911
C       2.616891    1.605959    3.395256
N       2.539636    2.740989    3.942666
C       0.710767   -0.674879    1.218914
H       0.717487    2.121004    0.347722
H      -0.219814    1.831184   -1.130355
H      -1.015326    1.857632    0.450603
H      -0.763328   -0.515332   -0.321362
H       1.435093   -1.533733   -0.865273
H       3.522396   -0.459043    0.285931
H       2.720140    1.089327   -0.057080
H       2.517409   -0.665152    2.420033
H       3.373065    0.833923    3.600810
H       3.284293    2.844241    4.628962
H       0.178420   -1.463098    1.738131
