12

O       0.074531    1.305423    0.197438
C       0.067295   -0.023695    0.031076
N       0.075949   -0.670567   -1.108871
C       0.062601   -1.999734   -0.753615
C       0.046001   -2.152191    0.614071
N       0.049294   -0.839836    1.107756
C       0.028710   -3.281316    1.447915
C       0.013759   -4.243851    2.174044
H       0.087554    1.689709   -0.688692
H       0.065674   -2.783361   -1.494583
H       0.039874   -0.563597    2.074973
H       0.000652   -5.098361    2.803714
