17

O      -0.071343    1.383891   -0.109098
C       0.032980   -0.032057    0.004191
C       0.543937   -0.558876    1.373767
C      -0.701221   -1.303001    1.849061
C      -1.418437   -1.986910    0.641962
O      -2.729786   -1.738502    1.250318
C      -1.970180   -0.498359    1.472302
C      -1.390228   -0.571687    0.006227
O      -2.163603   -0.300867   -1.102208
H       0.803710    1.747663   -0.272979
H       0.605952   -0.438689   -0.840610
H       1.417591   -1.210939    1.278625
H       0.807736    0.274776    2.031904
H      -0.705842   -1.837464    2.796522
H      -1.242221   -2.958678    0.179336
H      -2.463117    0.321324    1.993831
H      -1.982160    0.617510   -1.339496
