18

C       0.189098    1.293540    0.226718
O      -0.240678    0.033752   -0.257550
C       0.568155   -0.515626   -1.260901
C       0.445825    0.143061   -2.618213
C       1.857161   -1.135134   -0.826439
C       0.670751   -2.030675   -1.207309
C      -0.005547   -2.792638   -0.129324
O      -0.475192   -3.894487   -0.280067
H       1.227304    1.257959    0.585267
H       0.109125    2.080383   -0.535150
H      -0.467969    1.547996    1.061116
H       0.806934    1.176472   -2.594627
H       1.034747   -0.395793   -3.365069
H      -0.599706    0.151414   -2.940748
H       2.712889   -1.130441   -1.492067
H       2.098211   -1.089487    0.230719
H       0.715816   -2.554922   -2.155664
H      -0.045119   -2.273635    0.851016
