16

C       0.105447    1.483424    0.167743
C      -0.064229   -0.024590    0.002568
C       0.784357   -0.835087    0.988545
O       1.692740   -0.373703    1.623919
N      -1.448618   -0.467519    0.085826
C      -2.330631   -0.356317    1.111013
C      -3.467166   -0.970890    0.645352
N      -3.231709   -1.424256   -0.616529
N      -2.012150   -1.123800   -0.954179
H       1.163624    1.738505    0.086804
H      -0.455426    2.015814   -0.603163
H      -0.239056    1.815942    1.150567
H       0.252942   -0.336211   -1.001271
H       0.492778   -1.905574    1.058649
H      -2.087537    0.133611    2.038812
H      -4.418826   -1.110511    1.131609
