16

C       0.113096    1.605165   -0.028355
C       0.033625    0.064415   -0.012392
C       0.667559   -0.554909   -1.270928
O      -0.069686   -0.083130   -2.384652
C       0.645941   -0.489527    1.188512
C       1.180869   -0.951087    2.169234
C       1.785581   -1.478816    3.363782
O       2.702809   -2.268165    3.379548
H       1.155524    1.936193    0.005737
H      -0.342637    1.978505   -0.946895
H      -0.409477    2.030910    0.831437
H      -1.026707   -0.224351   -0.017879
H       1.726159   -0.258152   -1.324881
H       0.629953   -1.650935   -1.194155
H       0.339686   -0.421799   -3.185844
H       1.336966   -1.098126    4.304276
