18

C      -0.568287    0.779069    0.798326
O      -0.010531   -0.470904    0.423770
C       0.555001   -0.469692   -0.879244
C       1.406896   -1.737225   -1.056471
C       2.699406   -1.790359   -0.228360
N       2.541551   -1.533427    1.098153
O       3.765863   -2.078633   -0.733441
C      -0.559445   -0.488819   -1.926233
O      -0.461760   -0.031154   -3.032588
H       0.196593    1.568131    0.816675
H      -1.371104    1.089002    0.115138
H      -0.985903    0.656642    1.799609
H       1.172355    0.425952   -1.041915
H       0.789109   -2.609059   -0.807430
H       1.708361   -1.820354   -2.101698
H       1.653075   -1.219026    1.454147
H       3.361355   -1.529541    1.682256
H      -1.480372   -1.007980   -1.571220
