21

C      -0.563138    1.118546    0.048322
C      -0.051264    1.372903    1.473722
C       0.750631    0.227166    2.006976
O       0.048691   -0.983951    2.351203
C       0.907439   -0.371790    3.328946
C       2.385666   -0.759898    3.032982
C       2.488372   -1.614205    1.792678
C       2.250501   -0.134568    1.648672
C       3.174978    0.812719    0.940164
H      -1.188061    0.221374    0.020724
H      -1.159514    1.963204   -0.308787
H       0.265089    0.972042   -0.652431
H       0.561467    2.282332    1.496555
H      -0.897280    1.541982    2.149273
H       0.471056   -0.126001    4.290513
H       3.192858   -0.643521    3.744654
H       3.497589   -1.932768    1.548558
H       1.709373   -2.328901    1.559982
H       2.954102    0.870745   -0.132846
H       3.107052    1.828549    1.347333
H       4.215382    0.487275    1.043254
