18

C       0.055079    1.439298    0.057379
C       0.010476   -0.045717   -0.003648
C      -0.006516   -0.915184   -1.021721
C      -0.011426   -2.265505   -0.288735
O      -0.972016   -2.012913    0.790735
C       0.008574   -1.006124    1.206207
C       1.092051   -2.024857    0.775158
C       1.920113   -2.974931    1.525688
N       2.520209   -1.877588    0.709874
H       0.957073    1.784016    0.578669
H       0.052442    1.881893   -0.942478
H      -0.801791    1.841702    0.612139
H       0.000905   -0.746026   -2.088612
H      -0.160799   -3.199480   -0.829660
H      -0.119603   -0.625298    2.218690
H       2.061499   -2.869490    2.597781
H       1.989040   -3.996149    1.158465
H       2.892554   -2.234962   -0.166520
