20

C      -0.439446    1.567981    0.131770
C      -0.062015    0.092836    0.044809
C      -1.263437   -0.757598   -0.371354
C       1.217513   -0.247356   -0.803287
C       1.871238   -0.883362    0.435070
O       2.677085    0.079628    1.188347
C       1.611723    0.372727    2.025386
N       1.550293    1.132511    3.021663
C       0.640719   -0.535222    1.312510
H       0.409264    2.188754    0.430369
H      -0.796102    1.926226   -0.840780
H      -1.238664    1.727576    0.863419
H      -1.620289   -0.461310   -1.364159
H      -1.010134   -1.822762   -0.411808
H      -2.091863   -0.636768    0.335463
H       1.026812   -0.950849   -1.618040
H       1.774766    0.606720   -1.194476
H       2.365727   -1.852171    0.377750
H       2.449633    1.584300    3.198378
H       0.065006   -1.233777    1.916977
