17

C      -0.130677    1.487540   -0.025464
C       0.019336   -0.027538    0.001874
C       1.402335   -0.619459   -0.166431
C       0.787973   -0.631184    1.210457
O       1.201787    0.287316    2.177690
C       0.321387   -1.933327    1.777322
O       0.160025   -2.945520    1.143415
C      -1.105936   -0.746132   -0.532641
C      -2.071034   -1.289518   -0.999804
H       0.717102    1.972258    0.459616
H      -0.197509    1.831366   -1.061810
H      -1.043652    1.791945    0.493237
H       1.481134   -1.584301   -0.654223
H       2.216281    0.077834   -0.334348
H       2.128496    0.118427    2.379612
H       0.138320   -1.879425    2.873150
H      -2.912740   -1.793233   -1.406208
