17

O       0.013659    1.439612    0.050543
C       0.012433    0.019355   -0.024936
C       0.744972   -0.575595    1.180805
O       0.141515   -0.050189    2.363183
C      -1.197965   -0.431836    2.547831
C      -2.249588    0.574708    2.230032
C      -2.071581   -0.642510    1.319189
C      -1.420001   -0.544139   -0.021079
O      -1.936761   -0.981675   -1.023674
H       0.151772    1.664692    0.979499
H       0.477959   -0.275329   -0.970533
H       0.712675   -1.673640    1.166548
H       1.788870   -0.250146    1.204421
H      -1.336820   -1.102957    3.391617
H      -3.150843    0.596977    2.831877
H      -1.930458    1.534411    1.844095
H      -2.851741   -1.394091    1.361818
