21

O      -0.102792    1.243968   -0.760343
C      -0.085636   -0.083471   -0.271832
C      -1.441981   -0.488676    0.240912
C      -2.502655    0.315802    0.168123
C      -3.872162   -0.036308    0.681648
C      -4.087836   -1.524875    0.891058
C      -3.792060   -2.491747   -0.230520
C      -2.892293   -2.441521    0.980141
C      -1.493022   -1.862363    0.867545
H       0.772656    1.447537   -1.099901
H       0.220759   -0.794732   -1.060508
H       0.652649   -0.198250    0.542956
H      -2.377742    1.299379   -0.272225
H      -4.043286    0.489974    1.633314
H      -4.633518    0.359905   -0.005042
H      -4.937259   -1.771725    1.521383
H      -4.440276   -3.352223   -0.355707
H      -3.408380   -2.078580   -1.158087
H      -2.970213   -3.279417    1.666937
H      -0.847658   -2.552054    0.302158
H      -1.046135   -1.809034    1.872183
