23

C      -0.135920    1.552412   -0.031180
C       0.050438    0.048978    0.040755
C       1.353282   -0.686716   -0.215767
C       1.404384   -1.878560   -1.141702
C       2.626155    0.134170   -0.073595
O       2.538260    0.837747    1.161030
C       1.679723    0.117957    2.039589
C       0.730788   -0.697376    1.174126
C       0.080839   -1.901226    1.813479
H       0.727568    2.092829    0.359704
H      -0.296643    1.871245   -1.067399
H      -1.017844    1.858895    0.542854
H      -0.808540   -0.497215   -0.348149
H       1.536955   -1.564015   -2.183853
H       2.237115   -2.546796   -0.891522
H       0.481148   -2.463360   -1.095894
H       3.500042   -0.539259   -0.084044
H       2.768674    0.881312   -0.863606
H       2.257674   -0.560541    2.689901
H       1.180960    0.854115    2.681427
H      -0.610168   -1.600787    2.610247
H      -0.496409   -2.480086    1.086732
H       0.825795   -2.570977    2.259619
