10

N      -0.088946    1.303047   -0.036572
C      -0.026348    0.030375    0.006347
C      -1.226885   -0.795134    0.018360
N      -1.183954   -2.084141   -0.020059
N       0.062794   -2.599221   -0.065718
N       1.225782   -1.937740    0.021618
N       1.215889   -0.674426    0.062438
H       0.859642    1.687384   -0.029228
H      -2.204242   -0.325922    0.063456
H       0.139391   -3.603627   -0.053821
