20

C       0.181002    1.374371    0.252811
C      -0.144501   -0.099059    0.034629
N       0.855122   -0.723202   -0.840888
C       0.617012   -2.131894   -1.130578
C      -0.504471   -2.344644   -2.074962
N      -1.376242   -2.461145   -2.825666
C       1.873307   -2.844226   -1.638998
C       2.908888   -2.135113   -2.424378
N       3.162704   -2.531179   -1.025037
H       1.183549    1.493175    0.673479
H       0.138395    1.932347   -0.689437
H      -0.541195    1.827866    0.937213
H      -0.121901   -0.632333    0.992806
H      -1.167029   -0.201748   -0.364384
H       0.904445   -0.202742   -1.711640
H       0.332088   -2.610214   -0.183862
H       1.707691   -3.901776   -1.830284
H       3.479446   -2.678124   -3.171608
H       2.773981   -1.079016   -2.639074
H       3.031118   -1.704649   -0.441625
