16

O      -0.068009    1.283800   -0.214092
C       0.930664    2.196269    0.000900
C       2.230397    2.125300   -0.299702
C       3.099178    1.032873   -0.706849
C       3.411096   -0.081037   -0.013116
C       2.900623   -0.498358    1.275666
C       1.620907   -0.666089    1.669318
N       0.492978   -0.768074    0.896746
C      -0.135079   -0.036842    0.095303
H       0.488913    3.141834    0.297257
H       2.726701    3.094562   -0.240208
H       3.701650    1.244411   -1.589284
H       4.237420   -0.674391   -0.403985
H       3.654960   -0.777413    2.008846
H       1.447716   -1.005555    2.689302
H      -0.988491   -0.444818   -0.443591
