11

C       0.038333    1.432939    0.010062
N       0.041253   -0.018441    0.019505
C      -1.089184   -0.606169   -0.004924
N      -2.347660   -0.043373   -0.079785
C      -1.100781   -2.058811   -0.003791
N      -1.149981   -3.213349    0.006105
H       1.067499    1.795835    0.032316
H      -0.447737    1.837725   -0.890587
H      -0.482115    1.854821    0.885575
H      -2.438496    0.926025    0.178637
H      -3.138380   -0.624826    0.147378
