18

C       0.079092    1.583552   -0.324053
C       0.005057    0.110678    0.109546
C      -1.398647   -0.411429    0.155610
C      -2.133229   -0.838608    1.237996
C      -1.832049   -0.952508    2.694638
N      -3.362443   -1.197966    0.711510
C      -3.315701   -0.975626   -0.632174
N      -2.151776   -0.503218   -1.001930
H       1.117945    1.920485   -0.400658
H      -0.400105    1.713773   -1.298000
H      -0.437582    2.230255    0.392799
H       0.586470   -0.496873   -0.595217
H       0.479061   -0.013886    1.089680
H      -2.494269   -0.325243    3.304725
H      -1.931177   -1.983080    3.058256
H      -0.806728   -0.633500    2.892947
H      -4.144540   -1.559086    1.231605
H      -4.155553   -1.179928   -1.280034
