15

N      -0.524688   -2.988338   -0.210986
C      -1.585284   -2.303950   -0.056151
N      -1.561184   -0.942927   -0.302871
C      -2.621196   -0.075185   -0.180358
N      -3.800047   -0.570944    0.213908
C      -4.802479    0.299972    0.320878
N      -4.775175    1.608765    0.082562
C      -3.583821    2.084749   -0.311465
C      -2.463876    1.291645   -0.462730
H      -0.702490   -3.966370    0.008168
H      -2.567309   -2.655393    0.261433
H      -0.668340   -0.575188   -0.600043
H      -5.755790   -0.114380    0.642032
H      -3.532294    3.152096   -0.513414
H      -1.513067    1.702631   -0.782697
