20

C      -0.113434    1.598790    0.041249
C      -0.053824    0.071210    0.027700
O       0.785955   -0.400970   -1.028182
C       0.527840   -0.496761    1.320415
C       0.519014   -2.041488    1.379035
C       1.313602   -2.559777    2.593440
C      -0.847058   -2.565209    1.390824
C      -1.972659   -2.988384    1.424984
H       0.886990    2.021043    0.180902
H      -0.513278    1.980100   -0.905318
H      -0.762238    1.961221    0.845497
H      -1.071912   -0.328700   -0.098321
H       0.381478   -0.152284   -1.864708
H       1.565741   -0.153289    1.409799
H      -0.027601   -0.095433    2.175305
H       1.009331   -2.395993    0.464425
H       0.871680   -2.202378    3.528897
H       1.319910   -3.652506    2.619375
H       2.349020   -2.208365    2.545353
H      -2.962387   -3.372212    1.444623
