20

C       0.034143    1.638052   -0.311646
C       0.160879    0.137552   -0.150394
C       1.425476   -0.621544   -0.410005
O       2.567951    0.129443    0.016491
C       2.151988   -0.012622    1.408103
C       2.245219    1.250979    2.241046
C       0.822001   -0.646845    0.982819
C       0.119692   -1.724116    1.758368
H       1.014101    2.116564   -0.267684
H      -0.405469    1.873054   -1.287187
H      -0.608914    2.082320    0.455759
H      -0.710224   -0.417568   -0.498766
H       1.580910   -1.387376   -1.162828
H       2.779488   -0.791705    1.867508
H       3.276462    1.619484    2.247078
H       1.596188    2.045958    1.872305
H       1.964928    1.028056    3.276617
H      -0.439653   -1.309207    2.606049
H      -0.596579   -2.263189    1.130028
H       0.830874   -2.457307    2.156710
