12

O      -0.286610    0.052528    0.001851
C      -0.064684    1.241806    0.008347
N       1.179996    1.810594    0.001277
C       2.380326    1.109265   -0.013935
N       3.535775    1.773758   -0.018240
N       4.432671    0.790041   -0.033240
N       3.961066   -0.444028   -0.039063
C       2.637769   -0.276343   -0.026870
H      -0.858016    2.012190    0.020971
H       1.254827    2.816987    0.008130
H       5.420645    0.982167   -0.039820
H       1.946505   -1.098756   -0.027545
