22

C      -0.026307    1.579949    0.044505
C       0.009721    0.052069   -0.022354
C       0.752753   -0.465510   -1.258541
C       0.746531   -1.990512   -1.295019
C       1.590130   -2.580456   -2.414065
O       1.250122   -2.566804   -0.068750
C       0.864518   -2.051591    1.137868
N       0.768262   -2.783629    2.167187
C       0.676332   -0.555398    1.220315
H       0.987918    1.994446    0.084359
H      -0.525935    2.002411   -0.833522
H      -0.561847    1.924927    0.935002
H      -1.025686   -0.315823   -0.071981
H       0.289575   -0.090957   -2.178872
H       1.790216   -0.103495   -1.247639
H      -0.294316   -2.332169   -1.406860
H       2.631526   -2.257683   -2.319642
H       1.564329   -3.672544   -2.377132
H       1.210837   -2.255776   -3.387554
H       0.966070   -3.755295    1.915989
H       1.674919   -0.107646    1.331768
H       0.123851   -0.336526    2.135920
