19

C       0.062202    1.505512    0.118836
C      -0.004423   -0.024177    0.014258
O       0.683505   -0.515273    1.168551
C      -1.400541   -0.489128    0.019584
C      -2.527152   -0.909496    0.015193
C       0.676662   -0.506650   -1.284282
C       2.220340   -0.445396   -1.327165
O       2.312803   -1.872199   -1.524801
C       0.883459   -2.025222   -1.466139
H       1.108088    1.825308    0.126399
H      -0.448936    1.973895   -0.725419
H      -0.408323    1.834408    1.047376
H       0.474927   -1.450119    1.269319
H      -3.527282   -1.267751    0.019626
H       0.185345   -0.032809   -2.136585
H       2.654572    0.112653   -2.164932
H       2.693322   -0.133470   -0.389730
H       0.567769   -2.655604   -0.622525
H       0.473377   -2.456566   -2.386875
