15

N      -0.099694    1.309401   -0.171557
C       0.038743   -0.000448    0.203253
O       1.074886   -0.468190    0.613789
C      -1.272634   -0.793714    0.137221
O      -0.971946   -2.152992   -0.002738
C      -2.126486   -2.967501    0.077699
C      -1.760077   -4.367394   -0.084376
C      -1.491077   -5.529842   -0.216026
H       0.735040    1.873467   -0.188486
H      -0.890810    1.626527   -0.705028
H      -1.829719   -0.597313    1.070847
H      -1.905882   -0.434149   -0.693379
H      -2.630414   -2.823338    1.049111
H      -2.856423   -2.684166   -0.700703
H      -1.241013   -6.555528   -0.331102
