16

C       0.160249    1.534481    0.335514
O       0.051435    0.130352    0.136677
C       0.759435   -0.629469    1.046199
C       0.536567   -2.126129    0.748512
N       1.796176   -2.594684    0.161239
C       2.608612   -1.619416    0.272595
O       2.193598   -0.469452    0.852800
C       4.019188   -1.703563   -0.203226
O       4.815505   -0.806215   -0.115574
H       1.188862    1.878659    0.184491
H      -0.494812    2.007161   -0.398051
H      -0.167045    1.815233    1.346825
H       0.557782   -0.310963    2.076791
H       0.315034   -2.705733    1.650623
H      -0.292108   -2.253132    0.046994
H       4.252463   -2.690325   -0.647279
