19

O       0.141128    1.285417   -0.073698
C       0.023383   -0.107405    0.009725
C      -0.443261   -0.699228    1.310278
C      -1.354623   -0.696103    0.055516
C      -1.361278   -2.236399    0.052544
O      -2.675906   -2.705795    0.043752
C      -0.272946   -3.007440   -0.760574
C       0.667638   -2.986336    0.491072
C      -0.430314   -2.243235    1.312259
H      -0.583530    1.685386    0.419051
H       0.820232   -0.555757   -0.574922
H      -0.490326   -0.076483    2.197756
H      -2.232079   -0.102743   -0.178650
H      -2.657126   -3.661858    0.160372
H      -0.606921   -4.016002   -1.026040
H       0.093981   -2.525844   -1.670598
H       0.896786   -3.982100    0.877075
H       1.609668   -2.448054    0.367929
H      -0.762686   -2.698798    2.245754
