23

C      -0.459902    1.362950   -0.201558
O      -0.414372   -0.038847   -0.294879
C       0.790894   -0.509037   -0.866429
C       0.774648   -2.012224   -0.889125
C       0.051706   -2.744116   -1.998457
C       1.552166   -2.764172   -1.930527
C       2.503147   -2.235275   -3.018345
C       3.140974   -3.654943   -3.079244
C       2.416107   -4.020606   -1.750277
H       0.355666    1.760826    0.424419
H      -0.392040    1.843750   -1.191336
H      -1.416177    1.631655    0.254368
H       0.908598   -0.112885   -1.890284
H       1.652338   -0.139757   -0.281629
H       0.728818   -2.467813    0.097373
H      -0.490995   -3.649671   -1.745784
H      -0.417987   -2.142932   -2.771877
H       2.046690   -1.857904   -3.937416
H       3.202519   -1.479948   -2.644321
H       2.769406   -4.237213   -3.925891
H       4.231840   -3.704961   -3.075793
H       3.078201   -3.956003   -0.880324
H       1.893236   -4.980504   -1.717076
