19

C      -0.022184    1.496696    0.033518
C       1.515233    1.410603    0.014928
C       1.269210    0.085621    0.791756
C       2.218944   -0.961079    0.275314
C       1.964883   -0.620095   -1.168110
C       0.432298   -0.461988   -1.381997
C       0.859203    0.732062   -2.255728
N       2.037825    0.909224   -1.329480
N      -0.045597   -0.012137   -0.003167
H      -0.395723    1.832422    1.005850
H      -0.581896    2.018483   -0.742057
H       2.144032    2.219443    0.399886
H       1.084342    0.155655    1.863978
H       3.253123   -0.788600    0.587303
H       1.921012   -1.982277    0.530274
H       2.533119   -1.132054   -1.945121
H      -0.201402   -1.265179   -1.770728
H       1.224659    0.405654   -3.234283
H       0.215254    1.597797   -2.407024
