19

C      -0.123854    1.554673   -0.125673
C       0.014675    0.044415   -0.015268
C       1.054487   -0.642748   -0.910402
O       2.352708   -0.176441   -0.507145
C       1.752111   -1.239241    0.232161
C       0.773213   -0.595348    1.253386
C       1.419905    0.361180    2.259761
C      -0.050318   -1.595584    1.912481
C      -0.721250   -2.433867    2.455289
H       0.853550    2.042944   -0.115821
H      -0.624583    1.821625   -1.062967
H      -0.723075    1.960994    0.695306
H      -0.957319   -0.444957   -0.116280
H       0.953220   -0.988608   -1.932755
H       2.304635   -2.165839    0.336526
H       2.110452    1.033912    1.747642
H       0.661487    0.955438    2.777527
H       1.975855   -0.202614    3.014827
H      -1.316316   -3.168507    2.938765
