10

F       0.077469    0.030638   -0.223010
C       0.007934    1.321813   -0.025345
N      -1.149113    1.839405    0.051878
O      -1.195222    3.223674    0.263653
C      -0.082303    4.005157    0.385146
O      -0.177228    5.171199    0.563377
O       1.133224    3.389941    0.293080
C       1.284263    2.035195    0.085975
N       2.398715    1.464562    0.000489
H       3.170255    2.126217    0.103056
