19

C      -0.119135    1.543799   -0.069293
C       0.010300    0.048489    0.018722
N       0.358144   -0.674398   -1.190500
C       1.183640   -1.718846   -0.810900
N       1.399020   -1.865939    0.445558
C       0.711775   -0.791097    1.125485
C       1.367388   -0.259404    2.373366
C      -0.806074   -0.786668    0.969617
O      -1.573100   -0.063062    1.887985
H       0.836183    2.014860   -0.325885
H      -0.856606    1.827917   -0.829627
H      -0.463633    1.945994    0.884175
H       0.561389   -0.156325   -2.033578
H       1.587820   -2.380909   -1.570230
H       2.348832    0.170025    2.149306
H       0.752456    0.511015    2.844726
H       1.520615   -1.071753    3.092217
H      -1.272489   -1.691125    0.575200
H      -1.559562   -0.538202    2.725981
