16

C      -0.145757    1.579170    0.002475
C       0.032900    0.068922    0.030137
C       1.183720   -0.648142   -0.752553
C       2.178196   -0.157231    0.340422
C       0.914807   -0.645798    1.108343
C       0.921365   -1.880249    0.160966
H       0.787813    2.131670    0.135041
H      -0.582942    1.894784   -0.951595
H      -0.832503    1.897309    0.795050
H      -0.941343   -0.415770   -0.110016
H       1.340900   -0.652986   -1.833013
H       3.082273   -0.758461    0.471812
H       2.417582    0.906557    0.373697
H       0.759660   -0.647901    2.189108
H      -0.030812   -2.401012    0.024023
H       1.750082   -2.583017    0.281606
