15

O      -0.064502    0.004094   -0.209897
C      -0.009350    1.179237   -0.022009
N      -1.009733    2.167808    0.139502
C      -0.071221    3.184311    0.583913
C       0.609190    3.284141    1.942933
N       1.822148    3.355737    1.022844
C       1.007684    4.191776   -0.021073
C       1.370271    3.265152   -1.169712
C       1.061346    2.343978    0.018207
H      -1.994975    2.019937    0.324738
H       0.462801    4.192829    2.533469
H       0.609405    2.393104    2.579553
H       1.030152    5.282055    0.049276
H       0.672596    3.222159   -2.008036
H       2.410837    3.289112   -1.498784
