17

C      -0.790911    1.456781    0.421144
C      -0.281598    0.082948    0.124891
C       0.240113   -0.409075   -1.048477
C       0.447375    0.205581   -2.405741
C       1.544038   -0.407380   -3.152643
C       2.429550   -0.952779   -3.755689
N       0.535536   -1.731702   -0.789820
C       0.200044   -1.975114    0.506082
N      -0.299803   -0.909334    1.085469
H      -0.517235    2.167521   -0.364415
H      -1.883169    1.469551    0.514763
H      -0.382839    1.820366    1.369177
H      -0.469117    0.133585   -3.010278
H       0.637917    1.278577   -2.285541
H       3.222465   -1.405134   -4.298515
H       0.996908   -2.353538   -1.434157
H       0.347651   -2.939565    0.968876
