18

O      -0.049260    1.438549    0.083306
C      -0.016027    0.045464    0.035063
C      -1.301438   -0.757584    0.024860
C      -2.624823    0.002297   -0.003300
C      -3.238910    0.125330   -1.412186
C      -2.210517    0.450802   -2.469069
C      -0.936621    0.056006   -2.380865
C      -0.421365   -0.706122   -1.216804
H      -0.406552    1.754282   -0.756621
H       0.822849   -0.338787    0.607163
H      -1.293379   -1.688148    0.583155
H      -3.340003   -0.480716    0.668890
H      -2.454954    1.010054    0.393359
H      -3.738810   -0.814300   -1.690633
H      -4.026458    0.887354   -1.407548
H      -2.547663    0.993366   -3.348898
H      -0.235087    0.287483   -3.179421
H       0.169790   -1.585417   -1.458640
