18

O      -0.293048    0.749637   -0.887562
C      -0.057047    1.383276    0.118026
N       1.163053    1.487471    0.714904
C       2.363604    0.863442    0.180550
C       3.395882    1.901458   -0.215841
C       4.396883    2.428235    0.759946
C       4.875995    1.567284   -0.403967
C       5.419987    0.219915   -0.114680
O       6.285560   -0.313510   -0.763066
H      -0.830508    1.953011    0.670087
H       1.243851    2.067695    1.535031
H       2.773917    0.163515    0.917180
H       2.040103    0.283074   -0.686622
H       3.021005    2.612612   -0.946653
H       4.664980    3.478108    0.745490
H       4.434057    1.968540    1.744141
H       5.378349    2.063865   -1.226797
H       4.986139   -0.282887    0.780503
