15

C       0.034543    1.517492    0.068852
C       0.077121   -0.001797    0.047767
C      -1.112646   -0.612262   -0.504310
N      -2.061107   -1.092521   -0.960197
C       1.338181   -0.824689   -0.196308
N       2.525812   -0.194831    0.363744
C       1.965298   -0.131295    1.654629
O       2.361662    0.337806    2.679286
C       0.705515   -0.859132    1.175631
H       0.966988    1.932991    0.454708
H      -0.130449    1.907551   -0.939457
H      -0.780710    1.865896    0.708223
H       1.406034   -1.609976   -0.936616
H       3.051641    0.555491   -0.069257
H       0.154997   -1.644359    1.672292
