21

C      -0.723875    1.107533   -0.134671
C       0.067595   -0.190030   -0.133867
C       1.386673   -0.281247   -0.945828
O       1.960385    1.011173   -1.062324
C       2.003139   -1.135695    0.190893
C       0.881537   -0.658749    1.151983
C       1.287979    0.469857    2.100448
C       0.155011   -1.748399    1.898898
O       0.317062   -2.932839    1.738099
H      -0.097957    1.964554    0.119415
H      -1.145566    1.291361   -1.128620
H      -1.557021    1.060784    0.574524
H      -0.578388   -1.017681   -0.446376
H       1.308645   -0.758287   -1.931947
H       2.860377    0.905995   -1.387154
H       1.932107   -2.210241    0.008039
H       3.027727   -0.880229    0.475423
H       1.761765    1.281855    1.545509
H       0.424060    0.877036    2.637979
H       2.003690    0.104719    2.845951
H      -0.607091   -1.375403    2.624593
