21

C       0.113222    1.504724   -0.084420
C       1.280489    0.570016    0.121656
C      -0.121967    0.023973   -0.027513
C      -0.822427   -0.674314    1.132683
C      -0.709626   -2.172014    0.766449
C      -0.821548   -2.212384   -0.767697
C      -2.212835   -1.914697   -1.361997
O      -1.837811   -0.565063   -1.705708
C      -0.472620   -0.776974   -1.258535
H      -0.218690    2.100792    0.759330
H       0.014207    2.001661   -1.043638
H       1.978178    0.433589   -0.698698
H       1.736873    0.529005    1.105376
H      -0.381118   -0.438448    2.105290
H      -1.874943   -0.368941    1.167309
H       0.272441   -2.553091    1.068061
H      -1.465206   -2.791901    1.259720
H      -0.290960   -3.050220   -1.221004
H      -2.474992   -2.502875   -2.251054
H      -3.055619   -1.943764   -0.658461
H       0.236262   -0.652935   -2.085237
