21

C      -0.017510    1.562145    0.200466
C       0.017260    0.051150    0.028415
C       1.092580   -0.610333   -0.925338
C       1.267954   -1.761373    0.126282
C       2.571781   -2.186077    0.827310
C       2.299811   -1.891729    2.342913
O       3.459204   -1.504967    3.065033
C       1.217600   -0.809653    2.300955
C       0.635429   -0.812793    1.106468
H       0.968725    1.943188    0.485227
H      -0.318637    2.056891   -0.729151
H      -0.728877    1.855785    0.979684
H      -0.975600   -0.321636   -0.253503
H       0.762387   -0.883133   -1.930917
H       1.987555    0.015657   -0.992377
H       0.636819   -2.618252   -0.136057
H       2.870425   -3.222198    0.646646
H       3.403796   -1.543965    0.511136
H       1.958222   -2.796574    2.862115
H       3.765220   -0.672141    2.687583
H       1.060054   -0.131931    3.132153
