19

C       0.060909    1.498130   -0.206752
N       0.037761    0.056388    0.017284
C      -1.053810   -0.498380    0.883645
C      -0.143413   -1.755521    1.138566
C      -0.414964   -2.273569    2.536212
N       0.619795   -1.857153    3.520839
C      -0.588164   -1.016894    3.297549
C      -0.388331    0.031396    2.217962
C       0.734898   -0.473867    1.246613
H       1.037667    1.771985   -0.619634
H      -0.695710    1.747239   -0.958713
H      -0.121460    2.129107    0.677402
H      -2.104872   -0.469479    0.584108
H       0.041119   -2.433508    0.307827
H      -1.002430   -3.166657    2.713817
H       0.481233   -2.393462    4.376514
H      -1.314966   -0.895426    4.092759
H      -0.449624    1.083159    2.486809
H       1.814511   -0.415869    1.378640
