15

O      -0.542536    0.847235    0.816791
C       0.313027    0.703166   -0.016448
C       1.455008    1.686099   -0.188608
O       2.577602    1.166832   -0.941907
C       2.524007    2.263835   -1.846317
C       1.265036    2.305716   -2.614988
C       1.246367    2.836404   -1.186168
C       0.956154    4.241632   -0.864150
O       0.887097    5.122824   -1.689097
H       0.315610   -0.146984   -0.732367
H       1.777827    2.049771    0.794269
H       3.450011    2.765459   -2.100734
H       1.188419    3.111114   -3.338287
H       0.747445    1.386059   -2.865962
H       0.822738    4.449330    0.220077
