24

C      -0.049795    1.504433   -0.363964
C       0.004288    0.028482   -0.030838
C       1.297043   -0.714177    0.006492
N       0.531142   -0.496833    1.230403
C       1.087471    0.407895    2.229846
C       1.927395   -0.376154    3.243180
C       2.509176    0.504998    4.327392
C       1.690737    0.857851    5.546028
C       2.874835   -0.069959    5.671296
H       0.874599    2.026765   -0.107341
H      -0.216216    1.635291   -1.438565
H      -0.876147    1.998528    0.159396
H      -0.875092   -0.521061   -0.366462
H       1.371113   -1.741095   -0.342821
H       2.202706   -0.122948   -0.134759
H       1.708880    1.208797    1.793326
H       0.254181    0.897900    2.748020
H       1.300209   -1.156818    3.689798
H       2.734462   -0.896074    2.709717
H       3.165096    1.292147    3.961417
H       1.772159    1.857491    5.958583
H       0.699397    0.423686    5.630210
H       2.676543   -1.123341    5.840891
H       3.767076    0.297338    6.166482
