14

N      -0.299434   -0.986572   -0.688327
C      -0.158174    0.097341   -0.312903
C       0.047618    1.475453    0.129881
N       0.145528    1.666541    1.598636
C       1.319430    2.571609    1.458460
C       1.469225    2.073805    0.020822
C       2.623812    1.596213   -0.729807
O       1.931546    2.818198   -1.067898
H      -0.678706    2.125097   -0.377848
H      -0.677332    2.081289    2.019704
H       1.086855    3.644126    1.490404
H       2.133215    2.356246    2.156943
H       3.623154    1.728851   -0.320160
H       2.503217    0.782594   -1.441950
