16

C      -0.087595    1.405682    0.190578
C      -0.031653   -0.033870   -0.017342
C       0.024655   -1.225400   -0.177843
C       0.080618   -2.666249   -0.396678
N      -1.246101   -3.273955   -0.376364
C      -1.487615   -4.447828    0.272979
O      -0.628435   -5.108125    0.829615
C      -2.888368   -4.850758    0.236829
C      -4.034927   -5.211864    0.222780
H       0.724132    1.741146    0.845108
H      -0.000541    1.951242   -0.755260
H      -1.032832    1.700014    0.659434
H       0.583442   -2.881676   -1.350120
H       0.660885   -3.170076    0.382992
H      -2.017625   -2.767332   -0.779419
H      -5.044822   -5.542917    0.218660
