16

C      -0.119567   -1.153250   -0.338131
C      -0.060194    0.025099   -0.112730
C       0.043494    1.454280    0.146294
C       1.501613    1.968921    0.118547
C       2.123615    1.972703   -1.307761
O       1.881379    3.385643   -1.441877
C       1.591315    3.515157   -0.040960
C       2.306485    1.385020    1.181518
N       2.955369    0.945335    2.030962
H      -0.179732   -2.197187   -0.524818
H      -0.515266    2.014050   -0.613537
H      -0.405418    1.698946    1.116252
H       3.192276    1.730358   -1.327249
H       1.592221    1.377935   -2.056587
H       0.666033    4.069905    0.148539
H       2.417694    3.970271    0.517457
