21

O       0.057542    1.489036    0.014544
C       0.096049    0.073225    0.126202
C      -1.332070   -0.455502    0.070805
C      -2.347801    0.283120    0.987301
O      -3.184506    0.622787   -0.135826
C      -2.209729    0.125396   -1.073541
C      -1.448742   -1.964043    0.178363
C      -0.481631   -2.943318   -0.442520
C      -0.580557   -2.828663    1.060669
H       0.959575    1.818918    0.050168
H       0.687311   -0.363906   -0.693017
H       0.568200   -0.227788    1.073963
H      -2.872220   -0.342165    1.720212
H      -1.944162    1.174425    1.479757
H      -1.735347    0.935844   -1.637443
H      -2.638632   -0.609041   -1.766212
H      -2.489238   -2.277693    0.133740
H      -0.889882   -3.825548   -0.923193
H       0.418372   -2.566331   -0.915437
H       0.253872   -2.375652    1.584383
H      -1.056674   -3.632209    1.611732
