22

C      -0.138370    1.605068    0.003870
C       0.014578    0.088862    0.011309
C      -1.338813   -0.593376   -0.227323
C       1.085983   -0.578267   -0.893315
C       2.495363    0.045751   -0.881960
C       2.722577   -0.667661    0.462955
C       2.060406    0.014652    1.673491
C       0.729153   -0.603849    1.203266
N       1.475434   -1.540479    0.240069
H       0.808513    2.125421    0.171127
H      -0.540282    1.949209   -0.956260
H      -0.836157    1.927842    0.785365
H      -1.759522   -0.295609   -1.194419
H      -1.236416   -1.682912   -0.223184
H      -2.056858   -0.316925    0.553015
H       0.732524   -1.002483   -1.837464
H       3.118442   -0.383691   -1.670926
H       2.592979    1.134747   -0.917455
H       3.682304   -1.164308    0.620258
H       2.389205   -0.435792    2.613757
H       2.136345    1.102108    1.764967
H       0.085036   -1.048875    1.967058
