18

N      -0.345128    0.397602    0.312449
H      -1.160253   -0.095242    0.747965
H       0.472574   -0.211416    0.288060
H      -0.582139    0.695270   -0.634190
C      -0.194877    1.567294    1.295484
C      -1.653076    1.920483    1.623529
O      -2.066426    0.690919    2.209267
C      -1.043171    0.411102    3.246044
C       0.274520    0.961158    2.618683
C      -1.403326    1.192714    4.572905
O      -1.754384    0.492206    5.522362
O      -1.268233    2.437049    4.440032
H       0.432979    2.331942    0.840167
H      -1.677124    2.725326    2.366935
H      -2.283205    2.133011    0.752879
H      -1.065259   -0.669089    3.394983
H       1.064136    0.211929    2.487440
H       0.639385    1.770607    3.254173
