24

C       1.507942    0.519343    1.114452
C       0.579858    0.862250   -0.057307
C       0.906244    0.036220   -1.287035
C       0.231771   -1.267225   -1.550044
N       0.006361   -0.124509   -2.434215
C      -1.306212    0.489120   -2.427484
C      -1.405717    1.924582   -3.005823
C      -2.711380    1.497429   -3.730222
C      -2.281081    0.016981   -3.539342
H       1.401557   -0.530533    1.406584
H       2.557823    0.683886    0.848305
H       1.285652    1.138056    1.989104
H      -0.460216    0.705510    0.245502
H       0.676788    1.928557   -0.300151
H       1.948588    0.126221   -1.595803
H       0.769805   -2.108367   -1.979832
H      -0.574192   -1.546349   -0.870553
H      -1.808142    0.436109   -1.448556
H      -1.451013    2.759099   -2.301669
H      -0.590107    2.096916   -3.713513
H      -3.603256    1.743971   -3.146980
H      -2.859927    1.851538   -4.752397
H      -1.713228   -0.352354   -4.397572
H      -3.046370   -0.716106   -3.273012
