14

C      -0.312550    1.365169   -0.009227
N       0.042238   -0.045408   -0.001147
N       0.279207   -0.619738   -1.186578
C       0.596800   -1.879323   -1.189430
N       0.713925   -2.686718   -0.080742
C       0.482880   -2.120865    1.056067
C       0.115837   -0.715284    1.222580
N      -0.130266   -0.073790    2.307994
H       0.410435    1.932760    0.583391
H      -0.315343    1.695559   -1.046155
H      -1.294972    1.503033    0.451093
H       0.785317   -2.328976   -2.155844
H       0.563334   -2.720497    1.963021
H      -0.036183   -0.695250    3.110386
