15

O      -0.016715   -0.017178   -0.021833
C      -0.048033    1.179884    0.036534
C      -1.264950    2.054533    0.130833
C      -0.792587    3.444457    0.401226
C       0.726085    3.393718    0.333131
C       1.080635    3.049998   -1.066225
C      -0.198627    3.072711   -1.881371
N      -1.320232    3.106356   -0.922461
N       1.135540    2.010605    0.007143
H      -2.216511    1.632987    0.433737
H      -1.324234    4.162071    1.013884
H       1.353999    3.947299    1.019859
H       2.036159    3.290391   -1.522819
H      -0.241721    3.985965   -2.484942
H      -0.304664    2.215471   -2.553222
