11

O       0.039352    0.011946    0.390619
C       0.032638    1.158767    0.050997
O      -1.150679    1.746470   -0.335044
N      -1.236830    3.073008   -0.742780
C      -0.129513    3.732939   -0.739557
N       1.127041    3.298618   -0.386145
C       1.217794    2.062244   -0.004311
C       2.464795    1.508221    0.382765
C       3.514411    1.022080    0.714387
H      -0.217251    4.765255   -1.060549
H       4.441762    0.592226    1.007310
