20

C       0.335508    1.384566   -0.089831
C       0.092338   -0.088965   -0.001384
C      -0.980823   -0.738651    0.822778
C       0.460933   -1.129982    1.036309
C       1.024555   -1.973836   -0.123583
C       2.448033   -2.481422   -0.125079
O       2.962919   -2.536928   -1.437903
C       0.064237   -2.275046   -1.199954
N       0.670577   -0.919194   -1.145654
H       1.385100    1.593061   -0.320146
H      -0.274853    1.830109   -0.884363
H       0.081279    1.878605    0.852677
H      -1.365780   -0.082696    1.598564
H      -1.730803   -1.420508    0.437901
H       0.970424   -1.014917    1.984439
H       3.057371   -1.827010    0.522118
H       2.504045   -3.494776    0.290314
H       2.696466   -1.702115   -1.850384
H       0.453032   -2.840228   -2.040948
H      -0.993578   -2.416299   -1.015974
