21

C       0.335888    1.707638   -0.697767
O       0.607082    0.469689   -0.061090
C       0.655631   -0.606790   -0.948908
C       0.922742   -1.991116   -0.299652
C      -0.234127   -2.640580   -1.137274
C       0.266179   -3.373792   -2.390522
C      -1.264984   -3.470021   -0.375467
C      -0.683755   -1.196779   -1.459692
O      -1.729192   -0.714166   -1.793628
H       1.113337    1.952402   -1.438608
H      -0.639175    1.697510   -1.198239
H       0.336731    2.472373    0.082067
H       1.340470   -0.403669   -1.790624
H       1.921802   -2.405283   -0.443017
H       0.689290   -1.955654    0.766770
H       0.745538   -4.318065   -2.108988
H      -0.565902   -3.602248   -3.063908
H       0.998255   -2.782073   -2.949654
H      -1.619331   -2.945318    0.516830
H      -2.133869   -3.676917   -1.008112
H      -0.836144   -4.427703   -0.060372
