17

C      -0.020914    1.581790    0.148276
C       0.108035    0.087279    0.038005
C      -0.835833   -0.847851    0.745979
C       0.623451   -0.765255    1.160153
C       1.577712   -1.894619    0.812744
N       1.746581   -2.164555   -0.609010
C       1.242222   -1.379264   -1.458520
O       0.482649   -0.268632   -1.284824
H       0.938769    2.070918   -0.046977
H      -0.750967    1.960387   -0.574377
H      -0.353225    1.860883    1.151906
H      -1.589693   -0.421763    1.399012
H      -1.151465   -1.734889    0.205581
H       0.834221   -0.253380    2.095009
H       2.570665   -1.658851    1.217208
H       1.271978   -2.829893    1.299978
H       1.387423   -1.549301   -2.523826
