21

C      -0.289610    1.508189    0.051763
C       0.118077    0.041149   -0.062401
C       1.087671   -0.324969   -1.191230
C       1.872427   -1.531424   -0.625436
C       1.199544   -2.870339   -0.937930
C       3.343141   -1.537293   -1.025841
O       1.824057   -1.335544    0.819482
C       0.854458   -0.459366    1.181874
O       0.649040   -0.161370    2.324203
H       0.591393    2.157422    0.086139
H      -0.904180    1.813140   -0.800143
H      -0.858873    1.667280    0.970839
H      -0.789935   -0.572875   -0.136903
H       0.593598   -0.566712   -2.135183
H       1.772951    0.509606   -1.376713
H       1.274867   -3.095671   -2.006298
H       1.682865   -3.675949   -0.378771
H       0.139819   -2.856650   -0.666006
H       3.830545   -0.611688   -0.707868
H       3.869057   -2.379155   -0.566673
H       3.437739   -1.623709   -2.113007
