16

C      -0.099977    1.395244   -0.037545
N      -0.022170   -0.056979   -0.017442
C       0.010537   -0.671768    1.295582
C       0.014821   -0.743106   -1.189857
O      -0.014332   -0.194998   -2.286582
C       0.097066   -2.279050   -1.158031
O       0.123400   -2.765814   -2.465265
H       0.766436    1.833378    0.473002
H      -0.117154    1.725293   -1.074500
H      -1.008742    1.738295    0.472123
H      -0.891674   -0.413255    1.864711
H       0.068764   -1.756163    1.225584
H       0.879641   -0.318154    1.865083
H       0.999950   -2.586424   -0.606429
H      -0.768060   -2.681081   -0.606787
H       0.080542   -1.964125   -3.016755
