23

C      -0.090888    1.489857   -0.244444
C      -0.031209   -0.004033    0.085626
C      -1.412090   -0.629487    0.189722
O      -2.114750   -0.578447   -1.094176
C      -2.072571   -2.003337   -1.187824
C      -1.449136   -2.156008    0.183854
C      -2.857164   -2.674698   -0.094066
C      -4.096562   -2.033249    0.494915
C      -2.917005   -4.188016   -0.213159
H       0.912686    1.912200   -0.349800
H      -0.630587    1.649488   -1.181976
H      -0.608985    2.049704    0.542045
H       0.540302   -0.539366   -0.682021
H       0.488099   -0.165533    1.040171
H      -1.999438   -0.128129    0.971285
H      -1.848803   -2.439110   -2.156444
H      -0.646044   -2.797221    0.526628
H      -4.077945   -0.948021    0.378978
H      -4.993135   -2.402574   -0.016052
H      -4.200738   -2.271158    1.559765
H      -3.010779   -4.655370    0.773825
H      -3.779782   -4.498801   -0.812819
H      -2.015788   -4.592522   -0.686236
