19

C      -0.067747    1.590418   -0.042532
C       1.465412    1.511472    0.018808
C       1.365526    0.180206    0.839584
C       2.463985   -0.457708   -0.035759
O       2.265717   -1.792008   -0.453445
C       1.168144   -1.760806   -1.378074
C       0.663760   -0.314425   -1.358773
C       0.021769    0.044260    0.000566
C       1.951610    0.530208   -1.113459
H      -0.484937    2.009857    0.877886
H      -0.548130    2.054277   -0.911273
H       2.111572    2.345920    0.285758
H       1.316114    0.125157    1.925722
H       3.483643   -0.333983    0.332112
H       1.521905   -2.062068   -2.374372
H       0.399192   -2.475884   -1.059501
H       0.056602   -0.048392   -2.226386
H      -0.810083   -0.573909    0.339451
H       2.550422    0.841332   -1.967809
