17

N      -0.148850    1.285738    0.253676
C      -0.080928    0.023652    0.253082
O       1.076104   -0.698297    0.346097
C       0.804583   -2.101898    0.175079
C      -0.682477   -2.280843    0.514359
C      -1.237887   -0.914032    0.151564
C      -2.626083   -0.432693    0.469370
C      -2.246774   -0.685343   -0.960917
H       0.782034    1.700671    0.301795
H       1.019826   -2.377025   -0.864820
H       1.480533   -2.653586    0.831731
H      -1.138645   -3.104659   -0.039234
H      -0.807540   -2.479357    1.584675
H      -3.296622   -1.133394    0.955864
H      -2.708786    0.598233    0.794190
H      -2.080718    0.174645   -1.599338
H      -2.648056   -1.563383   -1.456627
