18

C      -0.160115    1.099215   -0.283264
C       1.256448    1.619467    0.017685
C       1.453026    0.276939    0.759980
C       2.487339   -0.735886    0.216586
C       2.878675   -1.537715    1.432377
C       2.434828   -0.980336    2.558003
C       1.669392    0.291283    2.290953
O       0.091957   -0.129097    0.424353
H      -0.983455    1.669739    0.164338
H      -0.389598    0.923977   -1.341736
H       1.899444    1.763927   -0.852841
H       1.306841    2.508118    0.650052
H       2.037528   -1.335094   -0.582493
H       3.356316   -0.220690   -0.217805
H       3.470606   -2.444017    1.370885
H       2.608049   -1.360826    3.558387
H       2.244509    1.175506    2.601812
H       0.702481    0.341444    2.803274
