13

C      -0.022686    1.431028   -0.004557
N      -0.006987   -0.029457    0.016730
N      -0.043776   -0.627566   -1.190699
N      -0.033361   -1.900363   -1.263842
C       0.015113   -2.651575   -0.115613
C       0.053312   -2.098189    1.118651
F       0.099757   -2.825865    2.216894
C       0.044266   -0.657945    1.277925
O       0.074469   -0.022345    2.311647
H       0.875917    1.816101    0.482538
H      -0.062928    1.739937   -1.047143
H      -0.892098    1.798010    0.545421
H       0.021165   -3.726570   -0.254348
