19

C       0.044773    1.493720   -0.081365
C       0.019774   -0.031357    0.013835
O       0.772476   -0.499110    1.136392
C      -1.399007   -0.572333    0.032748
C      -2.014800   -1.186729   -1.189980
C      -1.604850   -2.089834   -0.035154
N      -0.487453   -2.984213   -0.142794
C      -2.697356   -2.596565    0.778075
N      -3.570109   -2.976479    1.435510
H       1.076873    1.852959   -0.089441
H      -0.456462    1.838563   -0.991265
H      -0.469631    1.945174    0.775418
H       0.548454   -0.451635   -0.848061
H       0.328795   -0.204867    1.940030
H      -2.077845   -0.043109    0.697364
H      -3.072675   -1.043261   -1.374350
H      -1.403234   -1.258763   -2.084189
H      -0.234713   -3.187973   -1.099304
H       0.313011   -2.635174    0.371034
