17

C       0.002916    1.503926    0.029611
C      -0.013773   -0.004316   -0.014276
C      -1.273960   -0.734771   -0.352755
C      -1.397680   -1.819046    0.410274
C      -0.229025   -1.933308    1.361360
N       0.641187   -0.768514    1.067548
C       1.265039   -0.765683   -0.278137
C       1.292291   -1.946727   -1.099776
N       1.358949   -2.906308   -1.743035
H       0.962092    1.872127    0.401272
H      -0.166257    1.921376   -0.968485
H      -0.785785    1.874773    0.692056
H      -1.959010   -0.398389   -1.120244
H      -2.194318   -2.551070    0.359148
H      -0.538672   -1.875516    2.412079
H       0.325737   -2.871237    1.239418
H       2.197612   -0.206742   -0.304331
