17

C       0.177092    1.309037    0.334192
O       0.214988   -0.099468    0.180660
C       0.371478   -0.513642   -1.148124
O       1.655487   -0.189676   -1.669959
C       2.450852   -1.373209   -1.800849
C       1.484599   -2.508452   -1.533202
C       0.302971   -2.016147   -1.193714
C       3.066544   -1.433403   -3.127116
C       3.591486   -1.508628   -4.204859
H       1.125903    1.770258    0.036029
H      -0.634148    1.754682   -0.261559
H      -0.007571    1.509747    1.391593
H      -0.371408    0.002949   -1.778183
H       3.252353   -1.363931   -1.044674
H       1.776388   -3.546349   -1.618214
H      -0.588492   -2.564167   -0.921739
H       4.050030   -1.567196   -5.161081
