21

C       0.073384    1.547575   -0.059010
C       0.029515    0.092033   -0.037863
C      -0.006198   -1.111991   -0.022352
C      -0.054015   -2.571297    0.005428
C       0.633823   -3.206318    1.255001
C      -0.191616   -4.473892    1.567626
C      -1.533414   -4.195110    0.918493
C      -2.731426   -5.046890    1.196648
C      -1.453875   -3.162183    0.079261
H       0.788874    1.935955    0.674642
H       0.373407    1.925123   -1.043080
H      -0.905680    1.980319    0.175750
H       0.437325   -2.941819   -0.908952
H       1.695047   -3.405072    1.088008
H       0.556155   -2.500153    2.086040
H       0.260507   -5.377107    1.131641
H      -0.274746   -4.665614    2.644246
H      -2.989006   -5.030577    2.263450
H      -3.605459   -4.715383    0.629623
H      -2.538360   -6.097014    0.941321
H      -2.265233   -2.781929   -0.531154
