15

N      -0.066911    1.390366   -0.213232
C      -0.113594    0.012327   -0.048078
C      -1.152403   -0.864260    0.189387
C      -2.507882   -1.492795   -0.083873
C      -2.396193   -2.289315   -1.376550
C      -1.773299   -2.835541   -0.118678
N      -0.543140   -2.086508    0.199397
N       0.761605   -2.027958   -0.087876
N       1.035606   -0.741844   -0.140523
H       0.880185    1.736594   -0.125976
H      -0.693799    1.899785    0.393198
H      -3.448877   -1.267947    0.396818
H      -3.299479   -2.800445   -1.700355
H      -1.760639   -1.928475   -2.178429
H      -2.003469   -3.780647    0.351516
