13

C      -0.363530    1.411096   -0.059737
N       0.043698    0.007784   -0.024983
C       1.444601   -0.304009   -0.094398
C       0.687417   -0.548276    1.185846
C       1.020674    0.288567    2.371384
O       1.456690    1.416767    2.334509
H       0.328508    2.093124    0.445990
H      -0.452416    1.699610   -1.111515
H      -1.351185    1.502826    0.402037
H       1.722332   -1.159653   -0.704741
H       2.161228    0.515554   -0.065890
H       0.359634   -1.557093    1.425315
H       0.829642   -0.213401    3.345869
