21

C      -0.092216    1.576674   -0.023948
C       0.032374    0.043948    0.019002
C       0.664958   -0.476655   -1.282227
C       0.938325   -1.980987   -1.235877
C       1.790253   -2.357318   -0.031956
O       2.560555   -3.298415   -0.049360
C       1.585482   -1.542120    1.178470
C       0.778598   -0.467048    1.242723
C       0.552027    0.240805    2.550442
H       0.895134    2.051476   -0.037725
H      -0.619496    1.881034   -0.933340
H      -0.647801    1.974347    0.829038
H      -0.990831   -0.363082    0.088642
H       0.014853   -0.230955   -2.129104
H       1.610051    0.057728   -1.447661
H      -0.010293   -2.530855   -1.147702
H       1.433277   -2.344368   -2.140080
H       2.115571   -1.891617    2.060523
H       1.048495   -0.278363    3.373023
H       0.923044    1.271598    2.521622
H      -0.519557    0.303576    2.779375
