20

O       0.581434    0.438779    1.175464
C       0.043066    0.114408   -0.098047
C      -1.323570   -0.569261   -0.042503
C      -1.714044   -1.986050   -0.296875
C      -0.827674   -3.193148    0.031424
C      -1.602095   -3.676907    1.317164
C      -1.047975   -2.317078    1.852604
C       0.225311   -2.653633    1.038435
N      -1.912316   -1.383991    1.058355
H      -0.127723    0.822666    1.701516
H      -0.078532    1.023905   -0.705825
H       0.794750   -0.497437   -0.601293
H      -2.103419    0.120677   -0.367760
H      -2.607484   -2.180670   -0.887900
H      -0.569663   -3.866928   -0.785219
H      -2.688507   -3.771213    1.253287
H      -1.155780   -4.554608    1.789239
H      -1.022671   -2.057386    2.909846
H       0.769029   -3.481032    1.499712
H       0.925726   -1.868492    0.782790
