18

N      -0.069075    1.325527   -0.174926
C       0.033246    0.087150    0.069172
O       1.230902   -0.488388    0.382012
C       1.333808   -1.884649    0.743859
C       0.131138   -2.404792    1.492587
C      -1.035889   -1.926682    1.094156
C      -2.478126   -1.780712    1.526183
C      -2.498036   -0.422971    0.737815
C      -1.154832   -0.836068    0.057668
H       0.844540    1.777239   -0.095929
H       1.518735   -2.461564   -0.173849
H       2.239178   -1.944747    1.353554
H       0.275088   -3.084247    2.325899
H      -3.136134   -2.530197    1.072828
H      -2.679193   -1.750934    2.600002
H      -3.347418   -0.250238    0.076157
H      -2.363159    0.444935    1.384141
H      -1.308882   -1.221359   -0.958480
