18

C       0.064492    1.357592    0.117632
O      -0.123514   -0.028997   -0.079508
C       0.586229   -0.551596   -1.149186
C       2.159183   -0.528389   -1.260929
C       1.842891   -1.676605   -2.279878
C       0.700270   -2.098507   -1.289212
C       1.028583   -0.908427   -3.332160
C       0.201881   -0.163411   -2.596636
H       1.113970    1.596693    0.342648
H      -0.241641    1.944869   -0.760143
H      -0.555132    1.647294    0.969222
H       2.634964    0.371852   -1.655427
H       2.655137   -0.878722   -0.350299
H       2.606655   -2.376574   -2.611162
H       1.066929   -2.579793   -0.377570
H      -0.158713   -2.630018   -1.703272
H       1.123615   -0.993562   -4.405580
H      -0.578147    0.526046   -2.886135
