22

C       0.097292    1.458718   -0.114191
C       0.147433   -0.057832    0.061053
O       0.793232   -0.440607    1.277670
C      -1.249150   -0.668121    0.031933
N      -2.076620   -0.615685   -1.272961
C      -1.242126   -1.833439   -1.714167
C      -1.526689   -2.174717   -0.229251
C      -1.095581   -3.367624    0.585310
C      -2.952169   -1.671715   -0.573913
H       1.104450    1.882210   -0.072418
H      -0.364069    1.718806   -1.071336
H      -0.503614    1.920620    0.679700
H       0.783774   -0.483725   -0.719365
H       0.325976   -0.010920    2.003202
H      -1.820250   -0.237385    0.868581
H      -1.742151   -2.439679   -2.475315
H      -0.224175   -1.597844   -2.027355
H      -0.006473   -3.393576    0.687984
H      -1.522796   -3.325265    1.593272
H      -1.421787   -4.304559    0.120711
H      -3.566772   -1.264554    0.235038
H      -3.552287   -2.263156   -1.271396
