20

C       0.624049    1.155090    0.241095
O       0.617635   -0.249467    0.054793
C       0.457995   -0.637935   -1.288096
O       1.517939   -0.176724   -2.104681
C       2.721066   -0.956301   -2.108002
C       2.727384   -2.070023   -1.064569
N       1.561347   -2.930469   -1.299014
C       0.580850   -3.035114   -0.217988
C       0.315377   -2.147936   -1.377848
H       1.448160    1.631334   -0.301374
H      -0.322565    1.603223   -0.096770
H       0.738759    1.333360    1.312317
H      -0.431010   -0.143707   -1.706161
H       2.836372   -1.394569   -3.107883
H       3.559359   -0.271768   -1.936628
H       3.638168   -2.666754   -1.181162
H       2.732390   -1.631980   -0.058335
H       0.072100   -3.992616   -0.150305
H       0.805251   -2.555941    0.729937
H      -0.365794   -2.472453   -2.160595
