15

O      -0.001075    1.444514   -0.013008
C       1.263079    0.794825   -0.017649
C      -0.004645    0.023197   -0.025015
C      -0.455919   -0.668763   -1.280932
O      -0.852642    0.139989   -2.380351
C       0.365817   -0.579686   -2.513798
C       1.649642    0.202265   -2.506469
O       1.568162    1.614418   -2.365926
C       2.095527    0.884851   -1.266056
H       1.820606    0.871031    0.915450
H      -0.336519   -0.441933    0.902791
H      -1.064496   -1.558943   -1.124249
H       0.333683   -1.407373   -3.221775
H       2.405844   -0.144995   -3.209962
H       3.164285    1.016611   -1.099530
