18

C       0.362264    0.600661   -0.679232
O      -0.085290   -0.571009   -0.028246
C      -1.454270   -0.576250    0.300236
C      -2.370684   -0.978345   -0.887786
C      -2.242724   -2.479457   -0.462958
C      -1.236732   -3.223734   -1.198948
N      -0.432785   -3.819165   -1.779086
C      -1.739921   -1.958686    0.949064
O      -0.705275   -2.596981    1.606481
H       1.434255    0.482967   -0.848670
H      -0.134578    0.748748   -1.647722
H       0.189548    1.490547   -0.056379
H      -1.722410    0.326033    0.866288
H      -3.394299   -0.617798   -0.765781
H      -2.014797   -0.724385   -1.886429
H      -3.170286   -3.055678   -0.443380
H      -2.597477   -1.911358    1.625262
H       0.107681   -2.363607    1.137082
