20

C       0.544139    1.668749   -0.215837
C       0.079508    0.237383    0.097661
C       0.439977   -0.679536   -1.083723
O      -0.027989   -0.639913   -2.200935
N       1.423534   -1.530033   -0.654287
C       1.903606   -1.284061    0.693596
C       0.776779   -0.429779    1.283055
C       0.918406    0.205920    2.635246
C      -0.021062   -0.962127    2.446661
H       1.632583    1.719542   -0.327377
H       0.091289    2.008204   -1.151067
H       0.256164    2.359046    0.582347
H      -1.008293    0.235785    0.214598
H       1.903248   -2.119196   -1.316444
H       2.045477   -2.218165    1.248525
H       2.864979   -0.747950    0.690147
H       1.839421    0.037537    3.185117
H       0.488591    1.190126    2.788388
H      -1.088304   -0.766001    2.463025
H       0.262361   -1.920512    2.870018
