18

C       0.145423    1.575379    0.127232
C      -0.067146    0.070804   -0.060292
N       0.647014   -0.467793   -1.204456
C       2.019254   -0.771937   -1.283236
C       2.221795   -1.189358   -2.570825
N       3.405853   -1.560604   -3.214737
N       1.042464   -1.151316   -3.291274
C       0.152596   -0.712048   -2.434843
O      -1.154387   -0.506874   -2.691262
H       1.205984    1.807408    0.260136
H      -0.218084    2.127721   -0.743848
H      -0.396983    1.927059    1.010470
H       0.260000   -0.475085    0.831498
H      -1.127525   -0.149077   -0.205620
H       2.669249   -0.665303   -0.432298
H       4.066109   -2.022019   -2.603560
H       3.208368   -2.142731   -4.018576
H      -1.285812   -0.760954   -3.612893
