18

O      -0.101510    1.386242    0.046148
C       0.043435    0.002177    0.063745
C       0.906437   -0.812363   -0.977584
C       0.728004   -1.921085    0.114025
C       0.845292   -0.768103    1.150056
C      -0.789498   -2.180126   -0.001469
C      -1.734308   -1.677458    1.063221
C      -1.294325   -0.750198   -0.041190
H       0.774801    1.782311    0.087073
H       0.471483   -0.993858   -1.964109
H       1.935462   -0.448423   -1.067542
H       1.389035   -2.784977    0.161780
H       1.873869   -0.403298    1.215648
H       0.437681   -0.884486    2.154315
H      -1.130866   -2.930428   -0.705736
H      -2.754760   -2.039210    0.978873
H      -1.418560   -1.534327    2.089536
H      -2.006766   -0.391243   -0.774601
