20

O       0.052923    0.942011    0.958947
C      -0.095075    0.245522   -0.273859
C      -1.411612   -0.375194   -0.334549
C      -2.499137   -0.885966   -0.409973
C      -3.805599   -1.527607   -0.475542
C      -3.844089   -2.879576    0.258399
N      -5.180143   -3.453712    0.174739
C      -5.437845   -4.325699   -0.968408
C      -5.279600   -4.890162    0.400046
H       0.928694    1.341791    0.957485
H       0.020693    0.928452   -1.131663
H       0.677237   -0.533717   -0.383752
H      -4.572495   -0.873753   -0.043669
H      -4.091111   -1.680860   -1.524506
H      -3.070535   -3.546884   -0.161355
H      -3.600731   -2.725558    1.314987
H      -6.420958   -4.237998   -1.421537
H      -4.623823   -4.498428   -1.671663
H      -4.362114   -5.439468    0.606539
H      -6.145238   -5.221423    0.966510
