21

O      -0.078381    1.441608    0.013178
C      -0.016975    0.021436   -0.043236
C      -1.423559   -0.504116   -0.018414
C      -2.549130   -0.236693   -1.047256
C      -3.184472   -1.158649    0.018812
C      -1.870259   -2.003738    0.055155
C      -1.652153   -2.527844    1.475963
C      -2.095718   -1.275439    2.288141
C      -2.469054   -0.338444    1.138817
H       0.821087    1.781146   -0.009973
H       0.488020   -0.320914   -0.961862
H       0.548715   -0.387303    0.810976
H      -2.923532    0.788475   -1.104272
H      -2.410251   -0.661978   -2.046431
H      -4.204777   -1.546680    0.048426
H      -1.643299   -2.660078   -0.788707
H      -2.268139   -3.408058    1.686652
H      -0.610567   -2.808594    1.663487
H      -2.944944   -1.479347    2.948173
H      -1.291549   -0.867903    2.909577
H      -2.829627    0.664847    1.371159
