15

N      -0.126532    1.250010   -0.108702
C      -0.065874   -0.002032   -0.003905
O       1.098157   -0.740494    0.062263
C       0.835605   -2.108663    0.059933
O       1.716593   -2.903057    0.135894
C      -0.663689   -2.325624   -0.060812
C      -1.236267   -0.928215    0.035453
C      -2.448586   -0.521232    0.801041
N      -2.465809   -0.548373   -0.662319
H       0.797299    1.680167   -0.131735
H      -0.878987   -2.791847   -1.027487
H      -0.997830   -3.012981    0.719377
H      -3.042776   -1.292838    1.283498
H      -2.413937    0.439455    1.306077
H      -2.344634    0.400561   -1.016365
