21

O      -0.002141   -0.208093    0.130806
C       0.016748    1.000166   -0.024766
N      -1.142022    1.754695   -0.295683
C      -1.691543    2.691621    0.709640
C      -0.728786    3.707141    1.329110
C      -0.036016    4.672934    0.347482
C       1.368363    4.246193   -0.099015
C       1.429275    2.908690   -0.840726
N       1.182863    1.730947   -0.003529
H      -1.861220    1.078926   -0.528464
H      -2.499004    3.237933    0.207255
H      -2.154888    2.125663    1.532731
H      -1.341978    4.285963    2.030087
H       0.020329    3.192331    1.938958
H      -0.672695    4.815743   -0.535784
H       0.049029    5.657937    0.820132
H       1.779547    5.018122   -0.762222
H       2.032576    4.198336    0.773687
H       0.706227    2.910314   -1.662930
H       2.424706    2.790159   -1.282564
H       1.977453    1.131652    0.161364
