19

O      -0.051537    0.739125   -0.979163
C      -0.101229   -0.305049   -0.045016
C       0.003505    0.029916    1.470012
C      -1.165836   -0.958888    1.736774
C      -1.498297   -0.963963    0.227940
O      -2.558612   -0.061891   -0.045067
C      -3.078491   -0.166590   -1.354746
C      -4.272436    0.765532   -1.460296
O      -4.866777    0.974026   -2.483816
H      -0.747712    1.359325   -0.731282
H       0.641237   -1.043829   -0.359266
H       0.959885   -0.162535    1.960225
H      -0.284050    1.067657    1.663101
H      -0.831643   -1.939013    2.084669
H      -1.975808   -0.610963    2.379936
H      -1.701927   -1.934202   -0.243491
H      -2.337230    0.093188   -2.122752
H      -3.422806   -1.193423   -1.565568
H      -4.557616    1.236496   -0.493143
