18

C      -0.120536    1.545610   -0.054809
C       0.031097    0.062446   -0.023689
C       0.078389   -1.034783   -1.014854
N       1.293368   -1.628621   -0.445564
C       0.945731   -0.922908    0.831045
C       2.038801   -0.598076    1.802770
C      -0.411386   -1.526436    1.283240
O      -0.807909   -1.940861    2.339135
C      -1.061554   -1.062490    0.023865
H       0.825232    2.031056   -0.318432
H      -0.868955    1.843516   -0.795805
H      -0.440837    1.934369    0.917621
H      -0.136670   -1.021952   -2.077152
H       1.252848   -2.647433   -0.354594
H       2.831477   -0.016528    1.324228
H       1.644635   -0.037502    2.655654
H       2.481505   -1.521236    2.192020
H      -2.109438   -0.976600   -0.228646
