22

C      -0.928902    1.073143   -0.010040
C       0.114690   -0.040846    0.006539
C       1.227481    0.083324   -1.046236
C       2.387354   -0.718038   -0.457926
O       3.369326   -1.131146   -1.041123
N       2.122366   -0.884548    0.878272
C       3.038751   -1.563233    1.764311
C       0.903446   -0.224578    1.337964
C       1.201309    1.068051    2.110119
H      -0.474061    2.060575    0.116176
H      -1.464281    1.077835   -0.964813
H      -1.672109    0.939898    0.783692
H      -0.398739   -0.993188   -0.174240
H       0.957263   -0.299993   -2.032018
H       1.553274    1.122806   -1.179533
H       3.834226   -1.986100    1.148089
H       3.485933   -0.880932    2.497944
H       2.531764   -2.369136    2.309069
H       0.356801   -0.904824    2.005124
H       1.715621    1.801414    1.480809
H       0.279087    1.520773    2.485381
H       1.841142    0.860896    2.973105
