17

C      -0.026166    1.507014   -0.140578
C       1.358617    2.059393    0.113619
C       2.439450    1.323812    0.377505
C       2.471124   -0.182601    0.468569
C       1.113428   -0.751127    0.220402
C       0.017279    0.021483   -0.048724
N      -1.021440   -0.870878   -0.213082
C      -0.502091   -2.123505   -0.036170
N       0.783345   -2.089080    0.227020
H      -0.735697    1.939796    0.582893
H      -0.383874    1.844399   -1.126653
H       1.447450    3.141768    0.071192
H       3.387380    1.829644    0.544375
H       3.202089   -0.584385   -0.248678
H       2.850705   -0.488753    1.454668
H      -1.979542   -0.645967   -0.423233
H      -1.111549   -3.011848   -0.112305
