17

C       0.033273    1.590096    0.022678
C       0.080198    0.073485   -0.036916
C       0.810006   -0.664119   -1.162437
C       2.270384   -0.809012   -0.721227
N       2.401183   -0.074035    0.559559
C       1.067737   -0.698288    0.906285
C       0.772282   -0.930926    2.294178
N       0.528162   -1.136313    3.405943
C       1.243337   -1.789234   -0.240493
H       1.038344    2.011857   -0.033236
H      -0.560913    1.984067   -0.808835
H      -0.433634    1.928538    0.954003
H      -0.915361   -0.364523    0.084627
H       0.521830   -0.741042   -2.202612
H       3.089613   -0.925967   -1.417425
H       3.105736   -0.562007    1.113156
H       1.120759   -2.862735   -0.276524
