17

C       0.054637   -3.727864   -0.018879
C       0.037235   -2.519867   -0.012155
C       0.017314   -1.160963   -0.004327
C      -0.000397    0.051100    0.002615
C      -0.020690    1.481275    0.010664
C      -0.643402    2.423076    1.099506
C      -0.047252    3.371362    0.021269
C       1.208559    2.455282    0.001550
C      -0.668599    2.434800   -1.053002
H       0.069963   -4.789233   -0.024800
H      -1.732055    2.395109    1.189655
H      -0.154795    2.412359    2.076803
H      -0.062619    4.460140    0.027371
H       1.831925    2.446735    0.898988
H       1.810606    2.456606   -0.910334
H      -0.203018    2.434783   -2.041526
H      -1.759051    2.407663   -1.117940
