21

O       0.046974   -0.077814   -0.021452
C      -0.019430    1.127958    0.035315
C      -1.348570    1.873003    0.153160
C      -1.282233    3.091027    1.104029
C       0.049336    3.856630    0.985664
C       0.341542    4.299937   -0.469709
C       1.093563    3.099998   -1.122098
C       1.211450    2.026226   -0.005384
C       1.207077    2.886737    1.280801
H      -1.601787    2.216797   -0.859402
H      -2.123683    1.160702    0.444757
H      -2.125645    3.760549    0.901005
H      -1.398206    2.746955    2.139034
H       0.034579    4.707727    1.672990
H      -0.574160    4.563236   -1.007780
H       0.974081    5.192347   -0.473134
H       0.587160    2.716343   -2.012674
H       2.097585    3.397366   -1.437949
H       2.091548    1.389871   -0.112950
H       2.160679    3.417814    1.379299
H       1.057256    2.299687    2.192924
