22

C       0.359892    1.291986   -0.352234
C      -0.005326   -0.133009    0.116365
C       0.047380   -1.107190   -1.068010
C       0.861929   -0.574879    1.286952
N       1.781066   -1.425032    1.013510
O       2.552423   -1.768162    2.138007
C       0.620612   -0.090594    2.676119
C       0.967535    1.318722    3.131428
C      -0.468319    0.884027    3.054407
H       1.399141    1.324857   -0.695361
H      -0.282593    1.589969   -1.187253
H       0.241575    2.039542    0.436527
H      -1.038851   -0.107257    0.485861
H       1.052794   -1.157732   -1.492829
H      -0.231461   -2.119023   -0.763624
H      -0.643121   -0.776305   -1.850683
H       3.137891   -2.441365    1.776546
H       0.849788   -0.853815    3.410800
H       1.432794    1.421998    4.105221
H       1.332371    2.018512    2.389191
H      -1.084392    1.307636    2.269680
H      -1.003609    0.697547    3.978897
