17

C       0.005514    1.532034    0.050271
C       0.054584    0.016380    0.052582
C      -1.185835   -0.657046   -0.514762
C       1.326719   -0.744826   -0.179567
O       2.458163   -0.005184    0.356188
C       1.963826   -0.133792    1.652981
O       2.511392    0.144044    2.668985
C       0.679486   -0.793405    1.203434
O      -0.066297   -1.698361    1.909616
H       0.945761    1.973620    0.384704
H      -0.195924    1.899064   -0.962053
H      -0.797825    1.890119    0.702124
H      -1.373382   -0.290874   -1.529174
H      -1.085411   -1.744405   -0.549351
H      -2.062516   -0.426969    0.098114
H       1.537848   -1.502105   -0.921806
H       0.523234   -2.355293    2.298192
