19

C      -0.139231    1.510027   -0.457872
C       0.043985    0.142334    0.210498
C      -1.278008   -0.558955    0.427105
N      -1.869403   -1.258649   -0.726422
C      -1.474373   -2.035381    0.464116
C      -0.368443   -3.057691    0.278012
C      -0.885701   -4.291481   -0.433346
O      -0.772149   -5.419419   -0.026508
H       0.822962    2.006344   -0.614652
H      -0.627635    1.398107   -1.430734
H      -0.759817    2.172510    0.155962
H       0.694156   -0.479912   -0.411905
H       0.546712    0.261211    1.178958
H      -1.969189    0.003491    1.056412
H      -2.876650   -1.130969   -0.756638
H      -2.278325   -2.381552    1.113095
H       0.422557   -2.628968   -0.348089
H       0.066012   -3.357840    1.236250
H      -1.403277   -4.072296   -1.394030
