14

O      -0.040990   -0.037932   -0.219242
C      -0.012217    1.142059   -0.042891
O      -1.150105    1.898774    0.132450
C      -0.748403    3.252432    0.360865
C       0.018772    3.488849    1.658799
C       1.289862    2.735574    1.458362
C       1.170544    2.096056    0.057561
C       0.620397    3.488197   -0.312273
N       1.187601    4.145117    0.966943
H      -1.574587    3.921379    0.133954
H      -0.341660    3.819702    2.624111
H       1.949462    2.449484    2.267241
H       2.093351    1.740704   -0.391421
H       0.746106    3.956201   -1.284795
