15

C      -0.016926    1.530698    0.089406
C      -0.029389    0.002173   -0.083056
C      -1.424501   -0.555428   -0.029435
N      -2.042371   -0.574285    1.165722
C      -3.273147   -1.058757    1.158183
C      -3.856020   -1.506197   -0.027670
N      -3.197370   -1.458948   -1.180790
N      -1.958374   -0.975915   -1.183977
H       1.009497    1.907795    0.082230
H      -0.564643    2.020218   -0.721750
H      -0.481407    1.815190    1.037813
H       0.415189   -0.279230   -1.040260
H       0.555849   -0.458113    0.720168
H      -3.808224   -1.096203    2.104874
H      -4.862899   -1.909595   -0.062527
