19

C       0.050994    1.562560   -0.182584
C       0.040607    0.061077    0.007227
C       1.318209   -0.742961   -0.033195
C       0.544540   -0.618111    1.262016
C       1.113994    0.138553    2.443169
C       2.038229   -0.728812    3.291559
O       2.506115    0.060897    4.375437
H       0.948205    2.024046    0.239067
H       0.024786    1.816606   -1.248147
H      -0.817854    2.033211    0.291526
H      -0.821274   -0.423486   -0.445564
H       1.331078   -1.693953   -0.554789
H       2.248619   -0.186546   -0.107020
H      -0.018069   -1.504262    1.549860
H       1.680517    1.014886    2.111804
H       0.307200    0.513039    3.085861
H       1.488758   -1.614367    3.651920
H       2.872224   -1.094663    2.671637
H       3.094735   -0.480337    4.909229
