15

N      -0.013599    1.302035    0.054227
C      -0.042147    0.049337    0.059161
C      -1.158036   -0.988167    0.044610
C      -0.015824   -2.059036   -0.016395
C       0.317304   -2.836007   -1.254560
C       1.394810   -2.311301   -1.850627
C       1.813660   -1.057052   -1.158503
O       2.610096   -0.223036   -1.506818
N       0.983220   -0.967643   -0.004047
H       0.946533    1.648447    0.006494
H      -1.790404   -1.024119    0.932843
H      -1.783974   -0.933182   -0.848098
H       0.030472   -2.690801    0.877586
H      -0.212987   -3.731995   -1.554237
H       1.897947   -2.662026   -2.741135
