12

O      -0.061011   -0.023403    0.003559
C      -0.069044    1.192805    0.006818
C       1.187261    1.959705    0.000484
N       2.207784    2.501814   -0.004877
C      -1.290727    1.977512    0.017032
N      -1.411764    3.297202    0.021345
C      -2.748317    3.536295    0.030866
C      -3.454436    2.343799    0.032364
N      -2.513061    1.363895    0.023587
H      -3.146703    4.539290    0.036170
H      -4.510390    2.128507    0.038791
H      -2.647252    0.364303    0.021864
