25

C      -0.080189    1.546064   -0.079157
C      -0.019378    0.016292   -0.029700
C      -1.391735   -0.582015   -0.325801
C       1.175375   -0.535566   -0.872759
C       2.019928   -0.642134    0.422919
C       0.706443   -0.546946    1.247800
C       0.688718    0.230441    2.557867
C       1.485734   -0.458320    3.659540
O       1.411479    0.348840    4.826220
H       0.897913    2.004175    0.098849
H      -0.423154    1.877598   -1.065983
H      -0.776290    1.946751    0.665973
H      -1.757297   -0.267614   -1.310760
H      -1.358146   -1.676844   -0.316245
H      -2.133581   -0.263318    0.416570
H       0.952345   -1.518406   -1.299110
H       1.554321    0.108915   -1.671083
H       2.634482   -1.536636    0.550995
H       2.659095    0.234042    0.573403
H       0.326162   -1.560759    1.430525
H       1.100445    1.236378    2.416872
H      -0.342645    0.360034    2.910245
H       1.072355   -1.463883    3.844327
H       2.530604   -0.592214    3.335504
H       1.928033   -0.074755    5.517795
