25

C       0.032595    1.621149   -0.028489
C      -0.015858    0.086829   -0.027654
C       0.718859   -0.458968   -1.264997
C       0.643045   -1.972241   -1.507925
C       1.322120   -2.843349   -0.433744
C       0.545905   -2.965068    0.864702
C       0.155448   -4.362289    1.270248
C       0.218703   -1.904139    1.607214
C       0.555717   -0.464757    1.299853
H       1.065179    1.981660    0.056199
H      -0.385637    2.032301   -0.953400
H      -0.533409    2.038340    0.810997
H      -1.068526   -0.222558   -0.089772
H       0.324199    0.050983   -2.153395
H       1.777209   -0.164529   -1.196717
H      -0.405622   -2.280063   -1.609881
H       1.120288   -2.181223   -2.473557
H       1.484215   -3.845302   -0.845930
H       2.324870   -2.437389   -0.232884
H       1.041180   -5.000293    1.391174
H      -0.402790   -4.374416    2.210341
H      -0.463551   -4.840727    0.499309
H      -0.344903   -2.076843    2.522232
H       1.648009   -0.323262    1.286480
H       0.188502    0.160780    2.120838
