19

C       0.035234    1.612678   -0.272756
C      -0.033035    0.151468    0.199036
C      -1.422886   -0.404741    0.194308
C      -2.182153   -0.848254    1.248080
O      -1.988423   -0.960725    2.588333
N      -3.392972   -1.252058    0.741646
C      -4.499368   -1.794534    1.501089
C      -3.318717   -1.033367   -0.611917
N      -2.164621   -0.532489   -0.968597
H       1.069525    1.970017   -0.307658
H      -0.396389    1.701263   -1.273121
H      -0.532693    2.268477    0.395204
H       0.607899   -0.463280   -0.445956
H       0.394590    0.070039    1.208961
H      -1.096923   -0.658934    2.789275
H      -4.857332   -1.073295    2.241806
H      -5.313308   -2.027856    0.812497
H      -4.203768   -2.709071    2.023662
H      -4.146728   -1.267884   -1.264686
