17

N      -0.038773    1.486565    0.080643
C       0.019564    0.037036   -0.024505
C       0.230754   -0.604598    1.382335
C      -1.307249   -0.693254    1.542909
C      -1.439274   -0.571890   -0.007352
C      -2.507755    0.204241   -0.594169
C      -3.385274    0.864378   -1.084939
C       0.891981   -0.443266   -1.103990
N       1.589935   -0.800423   -1.954909
H       0.898445    1.874341    0.131323
H      -0.493148    1.879322   -0.739248
H       0.701476   -1.587249    1.309328
H       0.782164    0.015684    2.089712
H      -1.718609   -1.597483    1.992140
H      -1.716618    0.185621    2.039893
H      -1.402354   -1.567495   -0.459583
H      -4.170325    1.436534   -1.514552
