18

C      -0.018704    1.589730    0.101333
C       1.533389    1.343148   -0.039227
C       1.838998    0.600810    1.265375
N       0.902837   -0.540594    1.093568
C       1.404638   -1.270978   -0.150180
C       0.127075   -2.053324   -0.523946
C      -0.860911   -1.157704   -0.390886
C      -0.070382    0.068532   -0.003550
C       1.197508    0.071479   -0.904335
H      -0.385735    2.087133    1.003898
H      -0.440563    2.061991   -0.789821
H       2.200775    2.131604   -0.385072
H       2.872650    0.250700    1.346947
H       1.588843    1.167232    2.167615
H       2.343589   -1.824924   -0.072922
H       0.078638   -3.103341   -0.772931
H      -1.928551   -1.267191   -0.505726
H       1.125818    0.158568   -1.989443
