18

O      -0.010419    1.469840   -0.013127
C       0.011375    0.058084   -0.045100
C      -1.320490   -0.688230    0.050379
C      -2.215506   -0.282368   -1.048671
N      -1.170929   -1.275830   -1.349656
C       0.137885   -0.531652   -1.475754
C       0.311608    0.427799   -2.656455
C       0.290844   -0.260091   -3.941477
C       0.277842   -0.841363   -4.993096
H      -0.211661    1.754974    0.884276
H       0.771158   -0.341104    0.638226
H      -1.644257   -1.299245    0.886858
H      -3.210221   -0.715909   -1.066656
H      -2.152609    0.726153   -1.445720
H       0.925983   -1.286964   -1.517835
H      -0.451429    1.211835   -2.635324
H       1.268509    0.948792   -2.525360
H       0.261235   -1.349874   -5.924755
