13

O       0.049219    1.352243    0.380545
C       0.014473    0.001017   -0.044686
C      -1.406645   -0.456573   -0.015012
C      -2.594783    0.220112   -0.113516
N      -3.661772   -0.649807   -0.056457
C      -3.130366   -1.841205    0.072504
N      -1.765710   -1.783745    0.105428
H       0.901484    1.720431    0.130200
H       0.429954   -0.099248   -1.061935
H       0.627834   -0.644709    0.609231
H      -2.733158    1.284909   -0.209911
H      -3.667266   -2.775160    0.147200
H      -1.137896   -2.562583    0.215776
