16

C      -0.017512    1.597447    0.082568
C       0.120005    0.110604   -0.001268
N      -0.822111   -0.834027    0.698688
C       0.613975   -0.941862    0.958512
C       1.186993   -1.829958   -0.164673
C       0.738793   -3.196355   -0.298254
C       0.375337   -4.335229   -0.422170
C       0.662040   -0.707134   -1.153423
O       0.831612   -0.501638   -2.314973
H       0.876367    2.092787   -0.308465
H      -0.874434    1.942967   -0.504881
H      -0.162963    1.921287    1.118520
H      -1.239972   -0.292515    1.456707
H       1.040320   -0.797426    1.942800
H       2.282637   -1.769256   -0.191312
H       0.041273   -5.337079   -0.531643
