19

N      -0.072618    1.356039   -0.232031
C       0.046542    0.012287    0.107502
O       1.071128   -0.458576    0.566342
N      -1.093706   -0.724350   -0.138833
C      -1.061369   -2.178654   -0.071259
C      -2.355182   -2.749780    0.561016
C      -3.234152   -3.108257   -0.668026
O      -2.500194   -2.698701   -1.822796
C      -1.125460   -2.801315   -1.473238
H       0.664135    1.917189    0.168191
H      -0.988141    1.774906   -0.161460
H      -1.767994   -0.338834   -0.784228
H      -0.158039   -2.442063    0.477324
H      -2.132617   -3.638683    1.156250
H      -2.822435   -2.014647    1.218246
H      -3.429531   -4.189843   -0.709474
H      -4.196125   -2.588910   -0.686727
H      -0.537963   -2.262721   -2.219707
H      -0.798662   -3.854345   -1.449211
