23

C       0.023628    1.617355    0.123988
C       0.012998    0.086629    0.061940
C      -1.394726   -0.537352   -0.050564
C      -2.115768   -0.166970   -1.332855
C      -2.590806   -1.128490   -2.126151
C      -2.395064   -2.570442   -1.708754
C      -2.761440   -2.683361   -0.195936
C      -1.354424   -2.077295    0.077631
C      -0.912020   -2.744447   -1.260129
H       1.040087    1.995582    0.271321
H      -0.361316    2.066288   -0.796875
H      -0.590284    1.984427    0.954471
H       0.628924   -0.250895   -0.780469
H       0.487929   -0.310313    0.968875
H      -1.980919   -0.147091    0.797988
H      -2.239304    0.883726   -1.577527
H      -3.116211   -0.903477   -3.049558
H      -2.823609   -3.285350   -2.412787
H      -3.639822   -2.133196    0.151990
H      -2.819150   -3.724252    0.135180
H      -0.836806   -2.375999    0.993557
H      -0.653187   -3.795872   -1.107005
H      -0.142766   -2.258617   -1.864742
