18

O       0.135281    1.348132    0.255120
C      -0.012683    0.005275   -0.187383
C      -1.428376   -0.503265   -0.040158
C      -1.845111   -1.115555    1.276253
C      -1.685839   -1.988745    0.043441
N      -2.857203   -2.542251   -0.565921
C      -3.747504   -1.734856   -0.962472
O      -3.737493   -0.379669   -0.924359
C      -2.454682    0.265591   -0.848737
H      -0.113929    1.374123    1.185387
H       0.282513    0.014247   -1.242984
H       0.676570   -0.672624    0.340221
H      -1.097841   -1.206122    2.058745
H      -2.856681   -0.951849    1.631722
H      -0.835225   -2.662617    0.026120
H      -4.686521   -2.096415   -1.375873
H      -2.645970    1.257503   -0.433085
H      -2.078624    0.394855   -1.872878
