17

C      -0.004757    1.506329    0.427861
C       1.267543    0.849386   -0.050353
C       2.363921    0.506338    0.944266
C       1.896504   -0.346578    2.092881
C       0.754321   -1.032126    2.101302
C      -0.230600   -1.050919    0.963391
C      -0.028528    0.071475   -0.040795
H      -0.104319    1.685312    1.493964
H      -0.463577    2.263062   -0.199057
H       1.631165    1.170425   -1.022147
H       3.174409   -0.022141    0.419729
H       2.824504    1.426892    1.330141
H       2.561369   -0.405803    2.951451
H       0.503232   -1.641114    2.966625
H      -0.151054   -2.018119    0.444239
H      -1.255366   -1.021891    1.360213
H      -0.493365   -0.104729   -1.006481
