15

O       0.164032    1.341066    0.228140
C       0.093789    0.012072   -0.020532
C       0.234229   -0.795190   -1.122028
O       0.519240   -0.682882   -2.453225
C       0.238068   -2.008842   -2.995325
C       0.212634   -3.038242   -1.816828
C       0.030192   -2.096809   -0.662053
N      -0.222056   -2.161792    0.635750
N      -0.170960   -0.849104    1.010108
H       0.331884    1.795852   -0.603520
H      -0.740491   -1.967918   -3.488097
H       1.003381   -2.221830   -3.743853
H      -0.594727   -3.764072   -1.943288
H       1.153615   -3.595523   -1.744219
H      -0.368447   -0.590514    1.961218
