23

C       0.656571    1.320526    0.276834
C      -0.017256   -0.004484   -0.090153
C       0.578149   -0.709331   -1.329706
C       1.538872   -1.764549   -0.753548
C       3.034940   -1.390639   -0.657708
C       3.501451   -2.060715    0.645695
C       2.321032   -1.827463    1.604899
C       1.057160   -1.947353    0.716924
O       0.076725   -0.947373    0.980870
H       1.738917    1.209839    0.391810
H       0.472175    2.071898   -0.498969
H       0.251985    1.695716    1.221239
H      -1.087303    0.190239   -0.235661
H      -0.220478   -1.193214   -1.899434
H       1.078982   -0.006518   -2.001980
H       1.445501   -2.707461   -1.299364
H       3.603270   -1.708861   -1.536660
H       3.154276   -0.303560   -0.577734
H       3.647894   -3.135702    0.479987
H       4.447895   -1.662325    1.023071
H       2.309554   -2.517904    2.452562
H       2.353531   -0.811805    2.012813
H       0.570104   -2.917893    0.868593
