18

C       0.140935    1.413801   -0.134607
N      -0.033612   -0.031065   -0.175013
C       0.615009   -0.704827   -1.000624
O       1.535095   -0.292905   -1.987847
C       1.576942   -1.647819   -2.499455
C       2.145977   -2.578690   -1.483437
C       3.217119   -2.189272   -0.487507
O       4.513535   -2.247438   -1.060664
C       0.674898   -2.145614   -1.389917
H       0.808391    1.806282   -0.910323
H      -0.838735    1.892979   -0.234179
H       0.536318    1.697928    0.846870
H       1.536212   -1.771671   -3.573114
H       2.238515   -3.597080   -1.856645
H       3.003845   -1.198801   -0.066757
H       3.221670   -2.903852    0.341414
H       4.561850   -1.557999   -1.731249
H      -0.150126   -2.842518   -1.387145
