20

C       0.067496    1.546484   -0.200007
C      -0.085111    0.040031    0.033193
N      -1.466736   -0.408590    0.052262
C      -2.211059   -0.772193    1.245735
C      -2.452619    0.396797    2.213112
C      -3.486860   -1.331523    0.663372
C      -3.450316   -1.294870   -0.668153
C      -2.141986   -0.727401   -1.108157
O      -1.716967   -0.572661   -2.237845
H       1.127246    1.820473   -0.227497
H      -0.383104    1.819850   -1.157268
H      -0.416177    2.128121    0.590570
H       0.423537   -0.500589   -0.772281
H       0.383674   -0.255998    0.978237
H      -1.677379   -1.567472    1.793071
H      -2.993477    1.204024    1.711593
H      -3.041679    0.060428    3.072317
H      -1.505944    0.792872    2.591641
H      -4.293220   -1.684283    1.294049
H      -4.203047   -1.616632   -1.373573
