16

C       0.039495    1.379724    0.194226
N      -0.015187   -0.013831   -0.198047
C      -1.220612   -0.683969   -0.087574
C      -2.502571   -0.166466   -0.023325
N      -3.325138   -1.272896    0.020584
C      -2.533085   -2.382997   -0.005083
N      -1.249098   -2.049659   -0.069551
C      -3.069173   -3.688825    0.036279
C      -3.556414   -4.789542    0.073322
H       1.068512    1.736431    0.111756
H      -0.572578    1.984104   -0.485575
H      -0.316348    1.564326    1.221371
H       0.755247   -0.581402    0.124003
H      -2.890568    0.836501   -0.013075
H      -4.329516   -1.272225    0.073127
H      -3.970805   -5.766643    0.103610
