20

C       0.733032   -0.323759   -1.333543
C       0.033916   -0.059224    0.002890
C      -1.459527   -0.421163   -0.015165
C      -1.720731   -1.959696   -0.040700
C      -2.303554   -2.245688    1.324830
C      -2.527208   -1.107249    1.979500
N      -2.134917    0.011483    1.230731
C      -2.393067    1.302122    1.585111
O      -2.946612    1.645048    2.609967
H       1.789420   -0.045908   -1.280473
H       0.684367   -1.379126   -1.620193
H       0.275368    0.259771   -2.140279
H       0.519459   -0.622121    0.809702
H       0.135273    1.001314    0.260793
H      -1.935681    0.072944   -0.869170
H      -2.412357   -2.244322   -0.843312
H      -0.791013   -2.510449   -0.223474
H      -2.519638   -3.236041    1.697966
H      -2.955375   -0.930291    2.954543
H      -2.038777    2.018916    0.818931
