21

C      -0.156310    1.542758   -0.029752
C       0.022975    0.027982    0.043541
C       0.722056   -0.591248   -1.193137
C       1.467073   -1.799782   -0.644416
O       2.281138   -2.496045   -1.201908
C       1.119150   -1.951699    0.833999
O       2.106128   -2.644943    1.541476
C       0.844959   -0.494502    1.264453
C       2.146987    0.265398    1.538360
H       0.803823    2.055807   -0.143955
H      -0.783998    1.820043   -0.883055
H      -0.637023    1.928361    0.875694
H      -0.974139   -0.424671    0.122000
H       0.034624   -0.877116   -1.995071
H       1.456764    0.088110   -1.641411
H       0.156902   -2.498305    0.872016
H       2.662125   -3.064592    0.866639
H       0.226583   -0.470091    2.167406
H       2.774962    0.347653    0.643257
H       1.947329    1.277861    1.898946
H       2.730130   -0.264105    2.294835
