21

C      -0.377179    1.408539    0.166751
O       0.025012    0.077457   -0.083801
C       0.697172   -0.566862    0.995381
C       0.103412   -1.967539    1.161764
C      -1.371002   -1.952356    1.571826
O      -1.898947   -3.257832    1.746753
C       2.218488   -0.641244    0.719763
C       2.852216    0.717064    0.522962
O       3.560769    1.260230    1.333279
H       0.473707    2.073121    0.376585
H      -0.881403    1.764343   -0.735242
H      -1.078081    1.471073    1.011843
H       0.538371    0.005885    1.921735
H       0.210709   -2.499807    0.206725
H       0.676415   -2.525653    1.910188
H      -1.483622   -1.457563    2.543477
H      -1.951888   -1.375358    0.839027
H      -1.915926   -3.685599    0.884747
H       2.718267   -1.135666    1.557653
H       2.364995   -1.233666   -0.192151
H       2.615099    1.207504   -0.446997
