14

C       0.079760    1.465041    0.008445
C       0.042321   -0.026161   -0.019600
N      -0.005471   -0.656519   -1.141279
C      -0.037290   -2.035563   -1.062927
O      -0.085991   -2.625270   -2.265567
N      -0.025697   -2.790523   -0.018406
O       0.026636   -2.107868    1.213669
C       0.061797   -0.745038    1.272352
N       0.108939   -0.117633    2.376256
H       0.976677    1.805327    0.535286
H       0.060964    1.856079   -1.008557
H      -0.768792    1.848154    0.583815
H      -0.105197   -3.581766   -2.118544
H       0.115646   -0.767076    3.165329
