15

C      -0.015893    1.466458    0.016975
N       0.003169    0.003428    0.035037
C       0.060495   -0.677920   -1.220926
N       0.090335    0.047287   -2.269054
N       0.078282   -2.063048   -1.176555
C       0.041824   -2.631733   -0.012090
N      -0.013520   -2.032389    1.212348
C      -0.030104   -0.725604    1.163057
O      -0.083248   -0.037210    2.304832
H       0.880085    1.828629   -0.490862
H      -0.880257    1.805192   -0.557521
H      -0.059541    1.839975    1.036490
H       0.129996   -0.568284   -3.079546
H       0.056261   -3.719942    0.011970
H      -0.100487   -0.704999    3.006122
