20

O      -0.904499    0.858323   -0.413502
C       0.070439    0.957638    0.290192
C       1.238175    1.903579    0.103109
C       1.561488    2.598884    1.476073
C       2.641795    1.526084    1.763845
C       2.580767    1.102913    0.274557
N       1.249867    2.814097   -1.020643
C       0.741654    2.444318   -2.340281
C       0.041804    3.471607   -1.515363
H       0.178338    0.307117    1.191902
H       1.987389    3.582321    1.270605
H       0.742758    2.705186    2.192394
H       3.603989    1.882728    2.136050
H       2.285751    0.742194    2.437802
H       2.562787    0.033984    0.046960
H       3.347922    1.585512   -0.333169
H       1.375346    2.745998   -3.170497
H       0.231663    1.494988   -2.461235
H      -0.919804    3.185192   -1.104006
H       0.160770    4.528829   -1.738898
