19

C       0.429211    0.891566    0.314792
C      -0.613416    0.198462   -0.548479
O      -0.004154   -0.443998   -1.692862
C       0.467805   -1.674508   -1.503581
O       0.430405   -2.296682   -0.468903
C       1.089751   -2.251146   -2.800659
O       1.152792   -1.591321   -3.806083
C       1.593925   -3.671287   -2.673012
C       2.197536   -4.210076   -3.966339
H       1.110335    0.161944    0.759071
H       1.008808    1.606931   -0.275179
H      -0.067465    1.434721    1.124936
H      -1.164306   -0.552582    0.022788
H      -1.314506    0.913898   -0.982996
H       2.310636   -3.694162   -1.841876
H       0.758016   -4.289139   -2.319524
H       2.543763   -5.237772   -3.828867
H       1.463663   -4.197829   -4.776553
H       3.045574   -3.599672   -4.287808
