18

O      -0.007504    1.382702   -0.044991
C      -0.028003   -0.009336   -0.058220
C      -1.413155   -0.686566    0.068702
C      -1.058865   -2.147191    0.529480
C       0.479031   -2.122860    0.671901
N       1.047667   -2.068531   -0.699882
C       0.736956   -0.687619   -1.219634
C       0.696591   -0.680634    1.116296
O       1.268960   -0.131867    2.020108
H       0.486222    1.637163    0.749555
H      -2.009253   -0.159131    0.818118
H      -1.961382   -0.661980   -0.876185
H      -1.536631   -2.388548    1.482586
H      -1.348318   -2.901995   -0.204134
H       0.919733   -2.917690    1.269944
H       2.053687   -2.190593   -0.649375
H       0.139423   -0.748974   -2.135545
H       1.646075   -0.119889   -1.439750
