17

C      -0.293026    1.539101   -0.116031
C       0.058574    0.062222    0.051440
C       0.613144   -0.642656   -1.219815
C       1.843934   -1.416472   -0.762002
O       2.752174   -1.833714   -1.436501
C       1.845498   -1.489462    0.758563
O       3.083026   -1.740228    1.324750
C       1.147089   -0.168991    1.120367
O       1.416784    0.562270    2.031013
H       0.567854    2.104522   -0.486916
H      -1.117366    1.667207   -0.823290
H      -0.583817    1.971054    0.844140
H      -0.831203   -0.478346    0.401877
H      -0.109710   -1.322317   -1.682223
H       0.916743    0.068566   -1.994909
H       1.100967   -2.271889    1.021126
H       3.662177   -1.995882    0.590241
