19

C       0.356019    0.952244   -0.441385
N       0.727498   -0.430621   -0.167118
C       0.711410   -0.850643    1.012620
O       0.376561   -0.220449    2.197165
C       0.564113   -1.460644    2.949697
C       0.996717   -2.192845    1.653971
C       0.193158   -3.378416    1.169269
C      -1.150342   -3.209926    0.560319
N       0.003225   -3.592029   -0.271808
H       1.214871    1.473675   -0.877906
H      -0.441604    0.965793   -1.191478
H       0.020697    1.506339    0.442556
H       1.324920   -1.335856    3.723296
H      -0.380223   -1.794663    3.386233
H       2.064354   -2.434173    1.641573
H       0.391395   -4.295823    1.721514
H      -1.902341   -3.982749    0.692439
H      -1.546159   -2.203139    0.456798
H       0.330204   -2.763601   -0.770588
