15

C      -0.798174    0.864205    0.165480
N       0.265782   -0.125024    0.011304
C       1.562764    0.320828   -0.414635
C       1.375531   -0.188572    0.992192
C       1.492787    0.782336    2.105772
O       1.260818    1.974658    2.047173
C       1.950118    0.219462    3.459694
O       2.233233   -0.933123    3.653430
H      -0.459538    1.839762    0.532443
H      -1.267814    0.993051   -0.814335
H      -1.550693    0.468024    0.853735
H       2.087086   -0.316204   -1.122327
H       1.737973    1.391049   -0.514706
H       1.682911   -1.197507    1.243611
H       2.004651    1.005493    4.242206
