22

C      -0.084437    1.552164   -0.011793
C       0.052390    0.024653   -0.001444
C       0.688341   -0.519512   -1.288612
C       0.916512   -2.019112   -1.160014
O       1.383242   -2.506493   -2.411224
C       1.934170   -2.312981   -0.048566
N       1.672567   -1.636190    1.233892
C       2.256320   -0.304554    1.406180
C       0.787558   -0.457519    1.244061
H       0.896731    2.033370   -0.082428
H      -0.686319    1.885205   -0.864024
H      -0.568273    1.913476    0.901748
H      -0.960879   -0.399080    0.055352
H       0.034256   -0.319532   -2.143667
H       1.644790   -0.024992   -1.502089
H      -0.045564   -2.494118   -0.902619
H       1.529623   -3.454502   -2.327004
H       1.958428   -3.393924    0.145881
H       2.924739   -2.035977   -0.430817
H       2.688404   -0.100041    2.383009
H       2.819404    0.112571    0.572524
H       0.182916   -0.400245    2.148948
