14

C      -0.048721    1.438401    0.185437
N      -0.405499    0.086608    0.562585
C      -1.092983   -0.746409   -0.259329
O      -1.462668   -0.480482   -1.389469
C      -1.362678   -2.107784    0.340310
C      -0.250333   -2.997551    0.713028
O      -1.007034   -2.312080    1.712259
H       1.030896    1.602050    0.272060
H      -0.350217    1.578588   -0.853601
H      -0.564911    2.178001    0.807939
H      -0.250967   -0.240640    1.504394
H      -2.305026   -2.547958    0.023332
H      -0.393928   -4.075564    0.677565
H       0.772907   -2.650901    0.582307
