18

O       0.121229    1.474277   -0.062849
C       0.094197    0.055826   -0.035019
C       0.746214   -0.540025    1.233463
C      -0.021532   -0.201148    2.553293
N      -1.450857    0.136260    2.437925
C      -1.935320   -0.075179    1.300549
O      -3.131917    0.343957    0.780451
C      -2.588584    0.195614   -0.585602
C      -1.335552   -0.498403   -0.012593
H      -0.271732    1.800892    0.755790
H       0.645111   -0.256317   -0.926622
H       0.798038   -1.626673    1.100198
H       1.775650   -0.179724    1.316337
H       0.092876   -1.030241    3.260608
H       0.450837    0.660754    3.039171
H      -3.251642   -0.405162   -1.209900
H      -2.408415    1.179211   -1.024257
H      -1.338732   -1.578802   -0.175264
