16

N      -0.009260    1.353846    0.074321
C       0.027192    0.000118   -0.161216
O       1.063687   -0.574417   -0.440750
C      -1.287631   -0.720259   -0.080478
C      -2.526735   -0.073767   -0.135791
C      -3.706867   -0.807964   -0.060019
C      -3.658826   -2.193512    0.074297
C      -2.427027   -2.845201    0.119531
C      -1.249122   -2.113020    0.035526
H       0.891824    1.800142    0.150449
H      -0.755906    1.751592    0.618781
H      -2.578629    1.001057   -0.274143
H      -4.663295   -0.298612   -0.112796
H      -4.579260   -2.764748    0.136067
H      -2.386546   -3.924972    0.216975
H      -0.279401   -2.595995    0.055875
