18

C       0.196960    1.611559   -0.052202
C       0.051768    0.117893   -0.020404
C      -1.010024   -0.628697    0.785308
C       0.438641   -0.926054    1.002356
O       0.917504   -1.844183    0.017252
C       0.684811   -0.851893   -1.023817
C      -0.065110   -1.435445   -2.226503
N      -1.281552   -0.873710   -2.488393
O       0.433263   -2.304314   -2.910033
H       1.230489    1.904988   -0.266476
H      -0.441600    2.063319   -0.821255
H      -0.084584    2.054580    0.908064
H      -1.484451   -0.021697    1.551048
H      -1.644367   -1.391036    0.341167
H       0.968682   -0.869629    1.945986
H       1.650343   -0.481725   -1.391867
H      -1.744317   -0.299282   -1.805312
H      -1.833161   -1.280394   -3.227490
