19

C      -0.068650    1.603265    0.045445
C       0.030830    0.084372   -0.017886
C       1.099267   -0.571540   -0.905322
N       1.324814   -0.680411   -2.146173
O       0.415049    0.099554   -2.891864
C       1.724973   -1.270398    0.248728
N       2.077251   -0.187593    1.234253
C       0.689989   -0.681382    1.166732
C      -0.018744   -1.267366    2.346984
H       0.891953    2.033461    0.337324
H      -0.349948    2.004834   -0.931249
H      -0.824765    1.913807    0.774873
H      -0.940654   -0.362491   -0.263275
H       0.698882   -0.071184   -3.796033
H       2.235046   -2.224777    0.268793
H       2.526831   -0.662091    2.019232
H      -0.343630   -0.483252    3.040997
H      -0.907424   -1.826111    2.035318
H       0.634276   -1.951867    2.899548
