20

C       0.458678    1.463450   -0.364239
C       0.101637    0.051814    0.053447
O       0.607747   -0.958329   -0.861157
C       1.309695   -1.643105    0.192305
C       2.827768   -1.540436    0.166086
N       3.322229   -0.195011   -0.191592
C       3.265960   -0.584623    1.224789
C       2.052206   -0.014317    1.951785
C       0.815686   -0.630607    1.258117
H       1.539572    1.571540   -0.468332
H      -0.009523    1.689904   -1.327824
H       0.083186    2.185901    0.369939
H      -0.990487   -0.045056    0.131508
H       0.985836   -2.686683    0.283885
H       3.425311   -2.403403   -0.108961
H       4.275782   -0.271458   -0.535768
H       4.195903   -0.724469    1.768047
H       2.081195   -0.314770    3.004468
H       2.049580    1.080004    1.927170
H       0.107366   -1.025500    1.987851
