23

C      -0.357507    1.487449    0.037509
C       0.005524   -0.003316    0.022251
C       0.685671   -0.431051   -1.297640
C       1.493598   -1.752178   -1.112721
C       2.644616   -0.846157   -0.575891
C       2.063121    0.268234   -1.483296
C       2.398995   -0.458457    0.892313
C       0.887692   -0.448674    1.222115
O       0.585432    0.369250    2.346663
H       0.525679    2.132162    0.028159
H      -0.962330    1.735489   -0.841748
H      -0.930475    1.734938    0.932700
H      -0.936890   -0.561762    0.100759
H      -0.023475   -0.377099   -2.128195
H       1.086391   -2.539228   -0.471930
H       1.759936   -2.188191   -2.079356
H       3.676061   -1.165015   -0.745537
H       2.414588    0.176134   -2.514913
H       2.180850    1.304976   -1.157815
H       2.906585   -1.155265    1.572254
H       2.816986    0.536870    1.086816
H       0.603181   -1.485311    1.453923
H       1.107681    0.050645    3.089612
