19

C       0.194102    1.519262   -0.024338
N      -0.251526    0.175591   -0.362523
C       0.611499   -0.546777   -1.285047
C       2.042417   -0.583783   -0.915962
C       3.197022   -0.586047   -0.579608
C       0.119450   -1.986499   -1.421460
N      -0.468434   -2.563825   -0.462981
O       0.447460   -2.465718   -2.643989
C       0.157025   -3.831029   -2.911205
H       1.200550    1.569549    0.420544
H       0.197397    2.143005   -0.926331
H      -0.519598    1.958334    0.678263
H      -0.383604   -0.399291    0.463026
H       0.533021   -0.081173   -2.276384
H       4.218510   -0.593304   -0.289028
H      -0.731960   -3.526290   -0.662419
H       0.669769   -4.491301   -2.201956
H      -0.921784   -4.023924   -2.872949
H       0.522758   -4.025808   -3.919608
