17

O      -0.012816    0.005399   -0.268706
C       0.019654    1.180450   -0.061653
O      -1.108396    1.934024    0.125917
C      -0.710993    3.292593    0.420989
C       0.597041    3.452958   -0.363416
C       1.228900    2.118758    0.053483
C       1.611769    2.211908    1.545115
O       0.464019    2.395865    2.362416
C      -0.429818    3.406966    1.925185
H      -1.523736    3.953544    0.115200
H       0.409487    3.506780   -1.439016
H       1.175531    4.328460   -0.057524
H       2.065409    1.768534   -0.550888
H       2.073232    1.283821    1.891172
H       2.332387    3.034621    1.682922
H      -0.036408    4.414668    2.139879
H      -1.345925    3.262231    2.503126
