25

C       0.558070   -0.455389    1.482584
C      -0.048853   -0.026767    0.138618
C       0.871942   -0.410205   -1.030415
C      -1.482502   -0.543070   -0.050742
C      -2.575416    0.297534    0.565600
C      -2.380498    0.297893   -0.931623
C      -1.635965   -2.042032   -0.106459
C      -1.898200   -2.872437    1.129198
C      -2.957478   -2.749263    0.064288
H       1.543007    0.001404    1.626522
H      -0.079087   -0.153873    2.320204
H       0.684049   -1.541393    1.533068
H      -0.119323    1.069885    0.145234
H       1.061722   -1.488604   -1.059870
H       0.436831   -0.118611   -1.991705
H       1.843605    0.085763   -0.934934
H      -3.461240   -0.181720    0.967576
H      -2.271480    1.179968    1.119495
H      -1.965082    1.187208   -1.395000
H      -3.121541   -0.215914   -1.534281
H      -0.980821   -2.509085   -0.837469
H      -1.380672   -3.818626    1.244842
H      -2.065775   -2.338359    2.058232
H      -3.843309   -2.167652    0.294382
H      -3.153365   -3.606500   -0.570543
