20

C       0.139272    1.508974    0.237584
C      -0.030345    0.033112   -0.148352
C      -1.457555   -0.426325   -0.050413
C      -2.053514   -1.006114    1.170514
N      -1.851374   -1.896580    0.004959
C      -3.014938   -1.579092   -0.920883
C      -2.553649   -0.094002   -1.064314
C      -2.993549   -2.363015   -2.139283
C      -2.985153   -2.992579   -3.163154
H       1.184336    1.819414    0.147952
H      -0.457230    2.160665   -0.409975
H      -0.178811    1.686228    1.270179
H       0.329430   -0.127528   -1.172609
H       0.586608   -0.600092    0.499634
H      -1.386537   -1.241965    1.994299
H      -3.069028   -0.751668    1.470257
H      -3.978933   -1.710746   -0.415034
H      -3.272836    0.683414   -0.792345
H      -2.163207    0.110115   -2.062486
H      -2.975833   -3.559431   -4.060916
