21

C      -0.129549    1.507884    0.056718
C       0.252776    0.056194   -0.023915
C       0.726225   -0.530092   -1.345778
C       1.164967   -1.964548   -0.980277
C       1.632246   -1.882751    0.488389
O       2.991148   -1.464720    0.612170
C       0.793714   -0.755835    1.085023
C       1.085614   -0.292701    2.484349
O      -0.587216   -0.874346    0.698363
H       0.705243    2.143691   -0.257091
H      -0.976675    1.717158   -0.605980
H      -0.420653    1.787948    1.071095
H      -0.056554   -0.511505   -2.111089
H       1.568863    0.063547   -1.718164
H       0.315686   -2.647355   -1.052984
H       1.958968   -2.346350   -1.628879
H       1.471181   -2.830709    1.023163
H       3.549042   -2.166362    0.263611
H       2.143666   -0.037370    2.580551
H       0.479146    0.574750    2.752884
H       0.863541   -1.091961    3.200587
