21

C       0.087661    1.671228   -0.125088
C       0.082959    0.158529   -0.073261
C       0.638871   -0.741327   -1.138600
C       1.576994   -0.120867   -2.183515
C       2.925054    0.143679   -1.468780
C       3.664786    1.436201   -1.807352
C       2.657238   -0.042223    0.036883
O       3.444043    0.229020    0.911691
C       1.316850   -0.689600    0.222173
H       0.982204    2.080447   -0.599798
H      -0.780831    2.039182   -0.682958
H       0.037218    2.090056    0.885123
H      -0.802611   -0.241878    0.415387
H       0.057466   -1.609479   -1.427885
H       1.706637   -0.803202   -3.027080
H       1.159188    0.805371   -2.593855
H       3.593933   -0.699476   -1.698345
H       3.022649    2.313329   -1.671555
H       4.529856    1.549449   -1.148491
H       4.012041    1.436344   -2.844857
H       1.236843   -1.460008    0.979939
