15

O       0.102947    1.318684    0.461672
C       0.015703    0.018938   -0.092273
C      -1.408484   -0.427846   -0.002869
C      -2.593697    0.265708   -0.099602
C      -3.605551   -0.717657    0.035254
C      -5.058299   -0.481715    0.005413
O      -5.914464   -1.325828    0.109877
N      -3.082446   -1.939705    0.203501
N      -1.764466   -1.730884    0.180062
H       0.960289    1.686613    0.226966
H       0.341659    0.015411   -1.145106
H       0.660531   -0.699226    0.442733
H      -2.708444    1.328282   -0.236294
H      -5.319068    0.592995   -0.128993
H      -1.149134   -2.520038    0.302477
