19

C      -0.018250    1.515235    0.007300
C       0.004755   -0.003351    0.008229
C       0.708440   -0.737984   -1.182698
C       0.390595   -2.137276   -0.598383
O       0.856433   -3.211800   -1.371116
C       1.013853   -1.943715    0.804848
C       0.782245   -0.683074    1.161645
C      -1.141292   -1.977293   -0.447563
C      -1.366103   -0.716390   -0.087359
H       0.996579    1.926283    0.010578
H      -0.535057    1.902574   -0.876850
H      -0.536672    1.902624    0.891744
H       0.223490   -0.560823   -2.146520
H       1.781541   -0.536517   -1.240843
H       0.612153   -4.031979   -0.930626
H       1.500392   -2.733559    1.363189
H       1.031866   -0.188417    2.092119
H      -1.848678   -2.785746   -0.582973
H      -2.309489   -0.240239    0.149453
