14

C       0.168632    1.408657   -0.011576
N      -0.388506    0.118622    0.416618
C       0.426129   -0.695602    1.172375
C       0.867800   -1.949520    1.065034
O       0.795891   -2.850646    0.075646
O       1.568849   -2.286676    2.225743
C       1.578875   -1.177851    3.020979
O       2.103201   -1.084200    4.083600
O       0.880111   -0.187787    2.387730
H       1.029851    1.307816   -0.687486
H      -0.616347    1.977205   -0.514548
H       0.482966    1.968355    0.871466
H      -0.793229   -0.403024   -0.349958
H       0.333304   -3.642215    0.383271
