19

O      -0.254259    1.466175   -0.147244
C      -0.113486    0.079246   -0.036260
C      -0.498552   -0.614518    1.252460
C      -1.380428   -0.705514    0.037356
C      -2.769360   -0.111282   -0.207590
C      -2.936620   -1.111338   -1.387027
C      -1.722088   -1.936412   -0.835862
C      -0.732478   -2.441912   -1.764582
C       0.100817   -2.841937   -2.535112
H       0.452914    1.878712    0.359022
H       0.703683   -0.352929   -0.614004
H       0.068735   -1.489733    1.555169
H      -0.848785    0.012977    2.066754
H      -3.466004   -0.308157    0.613330
H      -2.794167    0.952076   -0.449641
H      -3.883706   -1.647589   -1.468197
H      -2.696684   -0.656909   -2.349836
H      -2.083591   -2.753082   -0.199414
H       0.826738   -3.202615   -3.220840
