18

C       0.061946    1.571793   -0.277541
C      -0.035621    0.079194    0.055967
N       0.555320   -0.769890   -0.971140
C       1.849169   -1.128646   -0.654275
O       2.689248   -1.597275   -1.368545
O       2.041492   -0.867926    0.677424
C       0.804646   -0.410501    1.263278
C       1.148413    0.584105    2.360885
O       1.899661   -0.033111    3.384877
H       1.101066    1.882478   -0.419991
H      -0.483271    1.782611   -1.203260
H      -0.382073    2.185089    0.512530
H      -1.085523   -0.188091    0.215003
H       0.347729   -0.636439   -1.948547
H       0.318048   -1.280745    1.720780
H       1.681040    1.445179    1.932046
H       0.226831    0.952806    2.824328
H       2.685794   -0.406282    2.969521
