16

N       0.523918    0.293310    0.944658
C      -0.054478    0.330414   -0.284618
O       0.330677    1.018055   -1.207754
C      -1.326506   -0.537965   -0.402091
C      -1.788358   -0.777774   -1.813085
C      -2.015291   -2.067661   -2.062450
C      -1.738125   -2.947033   -0.872312
C      -1.206184   -1.961994    0.171818
O      -0.754243   -2.248600    1.254714
H       1.407894    0.765082    1.052092
H       0.284460   -0.459303    1.576689
H      -2.089311   -0.016869    0.198245
H      -1.893763    0.035646   -2.517624
H      -2.357215   -2.465939   -3.010159
H      -2.631233   -3.450682   -0.477630
H      -1.000898   -3.738657   -1.055965
