19

O      -0.065265    1.262017   -0.818267
C       0.022201    0.236143    0.155325
C      -1.301106   -0.480452    0.295674
N      -1.667803   -1.348338   -0.843391
C      -1.476847   -1.945249    0.491393
C      -0.355433   -2.949690    0.634537
C      -0.755822   -4.298288   -0.001614
C       0.290247   -5.310096    0.118678
N       1.128696   -6.098119    0.225713
H      -0.335994    0.831151   -1.637570
H       0.823574   -0.474429   -0.088340
H       0.286961    0.726725    1.097931
H      -2.092348    0.149546    0.699414
H      -2.655986   -1.257626   -1.060521
H      -2.383036   -2.229381    1.027888
H       0.551195   -2.588041    0.145656
H      -0.119905   -3.096609    1.694204
H      -1.668911   -4.686104    0.465688
H      -0.980825   -4.142304   -1.062328
