17

C      -0.016306    1.546963   -0.030444
C      -0.032867    0.017090   -0.021760
N      -1.381916   -0.540092    0.005389
C      -2.072043   -0.905548    1.121741
C      -3.339858   -1.317496    0.755828
C      -3.429524   -1.194288   -0.645184
C      -2.208582   -0.708574   -1.092941
C      -1.774768   -0.410204   -2.401309
N      -1.401183   -0.156475   -3.470202
H       1.016906    1.906792   -0.029968
H      -0.512084    1.935863   -0.923510
H      -0.522961    1.948658    0.851789
H       0.475146   -0.373994   -0.907674
H       0.493397   -0.371701    0.854386
H      -1.604507   -0.848180    2.092468
H      -4.106271   -1.675232    1.425080
H      -4.270668   -1.434613   -1.275935
