17

O       0.428859    0.865249   -0.751954
C       0.067540   -0.256393    0.028240
C       0.445542   -0.186377    1.530730
C      -0.649623   -0.986769    2.197334
C      -1.675355   -1.211524    1.374258
C      -1.432516   -0.611175    0.037394
C      -2.433010    0.209073   -0.704168
N      -2.102608   -1.154062   -1.152812
H       0.040004    1.645363   -0.340546
H       0.604964   -1.094720   -0.431506
H       1.452900   -0.567694    1.726393
H       0.438852    0.859692    1.874297
H      -0.595267   -1.304164    3.232355
H      -2.589890   -1.741893    1.611022
H      -3.436953    0.334344   -0.307225
H      -2.057809    1.045545   -1.287643
H      -1.466143   -1.096300   -1.946608
