18

C       0.059110    1.390767   -0.421418
C       0.048742    0.056088    0.321223
O       0.486992    0.165935    1.663745
C      -1.337981   -0.595592    0.280021
O      -1.797834   -1.087475   -0.979879
C      -1.579062   -2.042679    0.067567
C      -0.499479   -3.073891   -0.118370
C      -2.328380    0.143634    1.054830
N      -3.064377    0.763813    1.695705
H       1.061403    1.824704   -0.386149
H      -0.231803    1.251566   -1.466490
H      -0.642728    2.097845    0.035506
H       0.750372   -0.629146   -0.159685
H      -0.017870    0.868535    2.090924
H      -2.508160   -2.428359    0.489765
H       0.395138   -2.658519   -0.584289
H      -0.226072   -3.508338    0.848231
H      -0.871473   -3.879946   -0.758649
