21

C      -0.135486    1.591674   -0.009132
C       0.067872    0.079627   -0.028791
C       0.743971   -0.576084   -1.234930
C       2.250138   -0.469514   -1.104209
O       2.807265    0.546748   -0.295162
C       2.369943    0.285364    1.043561
C       1.142138   -0.619292    0.897354
C       0.652903   -1.260074    2.179603
C       1.544305   -1.511769   -0.317235
H       0.789157    2.122363   -0.247386
H      -0.886984    1.880724   -0.752620
H      -0.496093    1.935644    0.967344
H      -0.890522   -0.421220    0.151342
H       0.272117   -0.802517   -2.185671
H       2.862504   -0.715586   -1.963530
H       3.166943   -0.218909    1.612997
H       2.148583    1.242528    1.527400
H       0.302299   -0.503198    2.890852
H      -0.178916   -1.944798    1.986880
H       1.450129   -1.831192    2.669456
H       1.705831   -2.581919   -0.334864
