16

C       0.036523    1.479474   -0.002893
C       0.024901    0.025720   -0.016042
C      -0.003826   -1.177822   -0.016598
C      -0.005576   -2.617602   -0.043043
C       1.215980   -3.281660   -0.642827
O      -0.539470   -3.269389    1.127989
C      -1.305553   -3.351194   -0.068273
C      -2.571277   -2.651036   -0.092953
N      -3.595417   -2.118280   -0.143891
H       0.757239    1.875119   -0.726320
H      -0.950480    1.881167   -0.254675
H       0.311672    1.859845    0.986615
H       2.106265   -2.997006   -0.075357
H       1.115031   -4.369169   -0.613147
H       1.354199   -2.959577   -1.678619
H      -1.333039   -4.333293   -0.538610
