17

C      -0.141667    1.492599   -0.018005
C      -0.009766    0.009562   -0.078456
N      -0.204550   -0.726620   -1.098325
C       0.038034   -2.108747   -0.676958
C       1.441129   -2.662972   -1.053168
C       1.923828   -2.416945    0.412743
C       0.492026   -1.981223    0.809304
O       0.349755   -0.580227    1.104419
H       0.814976    1.947749    0.257604
H      -0.462916    1.872946   -0.986886
H      -0.868158    1.775395    0.750204
H      -0.816347   -2.742165   -0.929024
H       1.432015   -3.717100   -1.341025
H       1.951577   -2.090229   -1.829664
H       2.294558   -3.300815    0.936907
H       2.653771   -1.612953    0.530306
H      -0.004369   -2.550330    1.596413
