22

C       0.166372    1.494746   -0.218423
C       0.000886   -0.018627   -0.387550
C      -1.396749   -0.539745    0.035665
C      -2.422398   -0.002379   -0.941828
O      -3.262871    0.820295   -0.684816
C      -1.426354   -2.072355    0.156874
C      -0.757129   -2.608743    1.407886
C      -2.557760   -2.851630   -0.416781
N      -1.221857   -2.912033   -1.039694
H       1.160430    1.814844   -0.544175
H      -0.573498    2.053867   -0.799749
H       0.046327    1.787602    0.829936
H       0.185583   -0.300218   -1.432904
H       0.762944   -0.540082    0.200065
H      -1.655084   -0.116087    1.013067
H      -2.325961   -0.400927   -1.982198
H      -1.287947   -2.272744    2.305305
H      -0.757375   -3.701130    1.390105
H       0.283755   -2.279222    1.486770
H      -2.877492   -3.770259    0.068116
H      -3.355938   -2.326042   -0.935000
H      -1.204663   -2.347396   -1.885912
