16

N      -0.176717    1.221560   -0.022855
C      -0.070319   -0.032575   -0.046994
C      -1.213437   -1.020268   -0.131722
C      -0.523399   -2.304431   -0.594278
C       0.895600   -2.128404   -0.027718
O       1.120459   -0.716583   -0.008065
O      -1.129623   -3.478686   -0.061251
C      -1.588586   -4.418040   -0.917742
O      -2.107085   -5.424770   -0.546970
H       0.741999    1.661637    0.053884
H      -1.638652   -1.180431    0.865255
H      -2.006590   -0.661703   -0.787133
H      -0.497583   -2.365682   -1.688670
H       0.939809   -2.537117    0.988889
H       1.674904   -2.593576   -0.635279
H      -1.427401   -4.145031   -1.978775
