19

C       0.847582    1.938531   -0.863629
O       0.025407    0.861028   -1.280320
C       0.687143   -0.382314   -1.341801
C       1.084112   -0.855864    0.004962
N       1.439741   -1.138610    1.067305
C      -0.213219   -1.337445   -2.110596
N      -0.216389   -2.750234   -1.728378
C      -1.456488   -1.967833   -1.587275
C      -2.031663   -1.770831   -0.205892
H       1.215480    1.795884    0.160780
H       1.709721    2.066229   -1.535178
H       0.228244    2.836471   -0.901461
H       1.630785   -0.278216   -1.906217
H      -0.218854   -1.087917   -3.169792
H      -0.236850   -3.349802   -2.547678
H      -2.211482   -2.127097   -2.357535
H      -1.250815   -1.685651    0.549967
H      -2.648797   -0.867173   -0.176549
H      -2.664880   -2.623779    0.060313
