16

C      -1.190166    0.647709    0.913714
C      -0.035695   -0.071870    0.244781
O       0.438361   -1.078683    1.159221
C       1.464818   -1.824502    0.741241
N       2.030549   -1.699594   -0.384878
C       1.892705   -2.859377    1.777701
O       2.814831   -3.606136    1.530756
C       1.170157   -2.905338    3.026447
C       0.591047   -2.973297    4.079264
H      -0.867514    1.122631    1.844370
H      -1.578071    1.423073    0.246656
H      -2.002297   -0.047271    1.144412
H      -0.334379   -0.560028   -0.688764
H       0.793357    0.602710    0.006795
H       2.781067   -2.390725   -0.446429
H       0.077950   -3.031944    5.008578
