16

C       0.081475    1.482808    0.069593
C      -0.056213    0.003904    0.034032
C      -1.131612   -0.832248   -0.038899
N      -2.515019   -0.552477   -0.057015
C      -0.613729   -2.175726   -0.010290
N      -1.432188   -3.310183   -0.130867
C       0.737918   -2.053810    0.077099
O       1.093051   -0.731677    0.110163
H       0.866343    1.819936   -0.616227
H      -0.855622    1.958544   -0.236235
H       0.334830    1.860593    1.068535
H      -2.705459    0.442221   -0.054459
H      -2.964248   -0.961187   -0.871170
H      -2.274152   -3.207731    0.426290
H      -0.960478   -4.164788    0.136619
H       1.546196   -2.764161    0.116901
