19

C      -0.095842    1.585993    0.051601
C       0.008317    0.077554    0.139441
C      -1.218949   -0.648946   -0.300864
O      -2.224436   -0.119367   -0.703541
C       1.250447   -0.738472   -0.188309
C       2.519735    0.012693    0.227688
C       2.008886   -0.049710    1.711757
O       1.845494    1.132696    2.460146
C       0.717911   -0.708892    1.240009
H       0.743854    2.084060    0.531832
H      -0.160619    1.902744   -0.994305
H      -1.012635    1.917135    0.546576
H      -1.143230   -1.760730   -0.235195
H       1.217225   -1.556529   -0.897933
H       3.435721   -0.561513    0.072480
H       2.647060    1.011418   -0.196426
H       2.603587   -0.783918    2.271785
H       2.711102    1.417096    2.770874
H       0.191191   -1.477649    1.793733
