25

C      -0.190489    1.637302   -0.743071
C      -0.044089    0.197220   -0.243778
C       0.807187   -0.678474   -1.170184
C       0.951462   -2.122624   -0.687591
C      -0.310104   -3.018556   -0.894155
C       0.352430   -3.619526   -2.147788
C       1.723067   -3.055780   -1.670069
O       0.196602   -5.009531   -2.261212
C       0.819075   -5.547875   -3.404742
H       0.786324    2.124497   -0.839557
H      -0.671858    1.668453   -1.727034
H      -0.795930    2.239128   -0.058033
H       0.404945    0.199755    0.758434
H      -1.038590   -0.252200   -0.127136
H       0.375000   -0.665887   -2.181266
H       1.808078   -0.234371   -1.266165
H       1.341449   -2.120089    0.335018
H      -0.403435   -3.785648   -0.121272
H      -1.276065   -2.523186   -1.021605
H       0.018326   -3.126793   -3.074505
H       2.369834   -2.575668   -2.409932
H       2.289048   -3.829765   -1.143860
H       0.417568   -5.107817   -4.331796
H       1.908459   -5.390839   -3.395559
H       0.620323   -6.622470   -3.410192
