25

C      -0.304393    1.618923    0.032880
C      -0.031381    0.105028   -0.005002
C       0.565980   -0.387157   -1.347906
C       2.080002   -0.312364   -1.478796
C       2.873477    0.959583   -1.324061
C       2.945817   -0.104231   -0.251988
C       2.274915    0.113522    1.103804
C       0.830257   -0.418833    1.168075
C       0.204569   -0.155767    2.542078
H       0.607707    2.220983    0.055813
H      -0.874633    1.923059   -0.850975
H      -0.895315    1.892163    0.912408
H      -1.013147   -0.380000    0.083286
H       0.287485   -1.443276   -1.459338
H       0.085860    0.139683   -2.183121
H       2.475079   -1.002554   -2.219768
H       3.735382    1.100050   -1.968216
H       2.349204    1.879666   -1.091761
H       3.870272   -0.672396   -0.216824
H       2.863229   -0.388484    1.880097
H       2.284876    1.178048    1.371590
H       0.886932   -1.509567    1.034739
H       0.176867    0.913989    2.775631
H      -0.822146   -0.535048    2.592904
H       0.780717   -0.647028    3.333707
