23

C      -0.132297    1.487624   -0.029870
C      -0.014491   -0.019007    0.040218
C       1.328663   -0.690664   -0.169794
C       0.686648   -0.695611    1.186323
C       1.278611   -0.075923    2.472091
C       0.825350   -1.331767    3.243899
C       1.620394   -1.982764    4.338604
C      -0.661243   -1.508403    3.086637
C       0.243632   -1.924830    1.953239
H       0.747389    1.973624    0.405105
H      -0.220211    1.832103   -1.066596
H      -1.011733    1.848102    0.515926
H      -0.871674   -0.556959   -0.359972
H       1.361867   -1.621417   -0.728252
H       2.194599   -0.051569   -0.322013
H       2.368013    0.018471    2.426759
H       0.857579    0.876862    2.813623
H       1.612222   -1.375068    5.252249
H       1.211246   -2.965771    4.594984
H       2.667328   -2.122180    4.044762
H      -1.089307   -2.323321    3.663427
H      -1.320405   -0.650204    2.971946
H       0.284596   -2.945789    1.588973
