17

O      -0.025347    0.046811    0.413835
C      -0.013240    1.180777    0.009789
O      -1.193786    1.828928   -0.204848
C      -1.170606    3.037029   -0.976778
C      -0.082833    3.990179   -0.540353
C      -0.120095    5.405036   -1.077134
C      -0.404204    5.164359    0.375322
C       1.202475    3.288475   -0.373111
C       1.227213    1.963244   -0.189755
H      -1.024823    2.772595   -2.033422
H      -2.165347    3.475900   -0.867543
H       0.823929    5.863037   -1.352395
H      -0.947987    5.668287   -1.727608
H      -1.427408    5.248688    0.725299
H       0.344089    5.454182    1.104220
H       2.121720    3.869689   -0.390294
H       2.145554    1.403803   -0.061737
