15

O      -0.598978    0.773272    0.888867
C       0.197309    0.813379   -0.006973
C       1.371038    1.793098   -0.081777
N       2.593297    1.228531   -0.748814
C       2.623788    2.378941   -1.686717
C       1.432636    2.271141   -2.574746
C       1.274450    2.875911   -1.193808
C       1.658150    2.398710    1.215989
N       1.935053    2.875325    2.231516
H       0.141993    0.147259   -0.891655
H       3.379415    1.215424   -0.107892
H       3.536953    2.909697   -1.922162
H       1.365546    3.012268   -3.364863
H       1.037471    1.294028   -2.830161
H       0.886001    3.869313   -1.020579
