13

C       0.047419    1.488736   -0.226165
C       1.464170    1.942669    0.216637
C       2.190576    0.635492    0.433672
C       1.361334   -0.406400    0.436119
C      -0.076004    0.007533    0.221181
H      -0.745370    2.120674    0.181759
H      -0.026155    1.544732   -1.316724
H       1.949352    2.583251   -0.528814
H       1.436141    2.527395    1.147465
H       3.260672    0.584054    0.603550
H       1.651979   -1.437171    0.608295
H      -0.649977   -0.093686    1.153620
H      -0.593079   -0.611160   -0.521313
