22

C      -0.038122    1.552277    0.108224
C       0.006543    0.030688    0.015168
C      -1.383955   -0.569586   -0.186967
C       1.060751   -0.578214   -0.994713
C       1.725268   -1.303352    0.182463
C       2.358974   -2.653350    0.185154
O       3.637480   -2.561731   -0.431805
N       2.172869   -0.229307    1.104669
C       0.768905   -0.694253    1.148101
H       0.958406    1.951306    0.310446
H      -0.404215    1.989180   -0.828060
H      -0.710289    1.878289    0.911022
H      -1.831265   -0.212188   -1.121139
H      -1.345350   -1.663835   -0.230298
H      -2.056049   -0.290779    0.633204
H       0.600771   -1.253589   -1.720890
H       1.704834    0.135347   -1.513004
H       2.440646   -3.012789    1.225862
H       1.709693   -3.361027   -0.354828
H       3.982802   -3.453478   -0.536750
H       2.670105   -0.677976    1.874336
H       0.345948   -1.102923    2.060551
