18

C       0.138980    0.951731   -0.929560
C      -0.091139    0.066352    0.275156
O       0.667878    0.001625    1.216739
C      -1.311588   -0.805395    0.216886
C      -1.984600   -1.630323    1.332403
C      -2.849984   -1.810412    0.060938
N      -2.678745   -0.333955   -0.290466
C      -1.542954   -2.041035   -0.749357
O      -1.543090   -1.826666   -2.115419
H       1.089211    1.477775   -0.832327
H       0.129452    0.336707   -1.837132
H      -0.680982    1.670932   -1.032477
H      -1.447146   -2.498439    1.723588
H      -2.440827   -1.043310    2.132610
H      -3.814378   -2.308316   -0.048259
H      -3.124900    0.245048    0.426822
H      -0.963314   -2.936889   -0.525786
H      -2.112601   -1.051929   -2.246348
