20

C       0.253188    1.341580    0.175092
O      -0.235295    0.062006   -0.164130
C       0.514687   -0.568850   -1.169681
C       1.915993   -1.118874   -0.841597
C       1.827340   -2.218024    0.181319
C       1.453269   -2.529520   -1.240860
C       0.059217   -1.998607   -1.502161
C      -1.267435   -2.598447   -1.259053
N      -0.767839   -2.380355   -2.637202
H       1.277096    1.295472    0.573614
H       0.250415    2.019902   -0.693083
H      -0.406984    1.749510    0.944055
H       0.547339    0.060341   -2.075336
H       2.850123   -0.627924   -1.083109
H       2.780790   -2.613689    0.515651
H       1.058756   -2.181336    0.948262
H       1.966432   -3.262891   -1.848873
H      -1.349519   -3.641375   -0.965149
H      -2.047211   -1.946260   -0.875924
H      -1.210763   -1.557713   -3.041752
