16

O       0.035837    1.394890    0.176928
C       0.066985    0.001327    0.014454
C      -1.344785   -0.603206   -0.006359
O      -1.927808   -0.277477    1.240838
C      -3.209357   -0.830641    1.479004
C      -3.677651   -0.351631    2.842842
O      -4.644277   -0.794245    3.399953
C      -2.151004   -0.074397   -1.127392
N      -2.805537    0.314475   -1.996148
H      -0.469027    1.575477    0.978205
H       0.567382   -0.207364   -0.935101
H       0.621244   -0.504293    0.819513
H      -1.273259   -1.695675   -0.128804
H      -3.936663   -0.500964    0.721027
H      -3.185945   -1.930165    1.466452
H      -3.048400    0.456389    3.276544
