21

C      -0.086788    1.618506    0.211256
C       0.029665    0.096156    0.082339
C      -1.335303   -0.578709    0.016907
O      -2.043233   -0.160710   -1.183587
C      -2.466149   -1.358693   -1.811481
C      -2.828728   -2.272760   -0.638946
C      -1.395240   -2.122265   -0.081784
C      -0.608438   -2.578242   -1.322500
O      -1.359706   -2.010451   -2.418006
H       0.900460    2.088987    0.238588
H      -0.640269    2.030598   -0.636649
H      -0.617183    1.899695    1.128053
H       0.601107   -0.148600   -0.818573
H       0.580859   -0.313325    0.939378
H      -1.925275   -0.254491    0.888895
H      -3.199983   -1.121538   -2.579695
H      -3.603718   -1.857471    0.007830
H      -3.084990   -3.289134   -0.944733
H      -1.150216   -2.647118    0.841528
H       0.422276   -2.214098   -1.356822
H      -0.591143   -3.672396   -1.412886
