19

C      -0.080379    1.582314   -0.034142
C       0.037647    0.056594   -0.021246
O      -1.276931   -0.520383    0.056365
C       0.799398   -0.520663   -1.200114
C       1.603813   -1.518238   -0.842862
C       1.569964   -1.771976    0.643129
C       0.809764   -0.538836    1.204068
C       1.809753    0.441066    1.780954
O       1.696281    0.997208    2.842714
H       0.898058    2.068081   -0.104020
H      -0.669062    1.903983   -0.901201
H      -0.582042    1.936248    0.870399
H      -1.756480   -0.269397   -0.741179
H       0.628697   -0.173945   -2.214520
H       2.200376   -2.118489   -1.521402
H       1.041928   -2.704385    0.875343
H       2.573842   -1.871710    1.076011
H       0.091030   -0.783845    1.987169
H       2.707490    0.611140    1.139543
