18

N       0.155128    1.343532   -0.010544
C      -0.052859   -0.031060   -0.017352
C      -1.176424   -0.812523   -0.007123
C      -0.682586   -2.161262    0.067383
C       0.661880   -2.081948    0.093052
C       1.406823   -3.359053    0.245548
C       0.227611   -4.369422    0.022216
C      -1.125244   -3.589743    0.192936
O       1.086577   -0.779964    0.051268
H       0.998861    1.607831   -0.504514
H      -0.638900    1.854036   -0.372240
H      -2.194361   -0.460303   -0.060615
H       2.212769   -3.507869   -0.482517
H       1.858341   -3.468693    1.241904
H       0.286926   -4.759269   -0.997812
H       0.294461   -5.226526    0.696834
H      -1.581918   -3.786826    1.172111
H      -1.860016   -3.899649   -0.558629
