18

C       0.036588    1.517608    0.058140
C       0.034448    0.030523   -0.041058
C       0.165035   -0.832116   -1.098140
O       0.371469   -0.693882   -2.441963
C       0.156256   -2.012989   -3.000994
C       0.294444   -3.060509   -1.849967
C       0.089586   -2.170232   -0.658677
C      -0.085108   -2.136134    0.701503
N      -0.110384   -0.806160    1.065171
H       0.876041    1.899591    0.653923
H       0.122984    1.946485   -0.942983
H      -0.886391    1.908668    0.506058
H      -0.855773   -2.044475   -3.424855
H       0.879198   -2.152232   -3.807978
H      -0.442809   -3.861135   -1.961954
H       1.287068   -3.528200   -1.853961
H      -0.191817   -2.913028    1.441218
H      -0.282007   -0.475201    1.998033
