18

N      -0.386117    0.661545   -1.024958
C      -0.645919   -0.305986   -0.258191
O      -0.154747   -1.531862   -0.536433
C      -0.513008   -2.572964    0.384393
C      -1.917735   -2.954278    0.324415
C      -3.084407   -3.255063    0.268039
C      -4.468217   -3.616251    0.198719
C      -5.155490   -3.730506   -1.155363
C      -4.876104   -4.970850   -0.364623
H      -0.819170    1.510971   -0.668341
H      -1.252098   -0.271335    0.656688
H       0.130548   -3.413424    0.109797
H      -0.241739   -2.275229    1.407029
H      -5.084117   -3.237793    1.009194
H      -6.176491   -3.372079   -1.218976
H      -4.548834   -3.534459   -2.031019
H      -4.079144   -5.622644   -0.701383
H      -5.702767   -5.476067    0.121657
