22

C       0.106953    1.427245    0.067245
C      -0.037406   -0.096545    0.025759
C      -1.494627   -0.527723    0.022767
O      -1.530157   -1.968592   -0.013279
C      -2.752079   -2.533045   -0.004571
O      -3.783420   -1.906522    0.012531
C      -2.661286   -4.063031    0.004666
C      -2.237858   -4.536299    1.404527
N      -3.906240   -4.711493   -0.388861
H       1.160631    1.719523    0.069699
H      -0.366745    1.897334   -0.801430
H      -0.357302    1.847998    0.965752
H       0.454010   -0.499826   -0.867102
H       0.463844   -0.548296    0.889551
H      -2.024217   -0.179986    0.916345
H      -2.033269   -0.136953   -0.847404
H      -1.878580   -4.349159   -0.706700
H      -2.992058   -4.254565    2.147814
H      -2.147237   -5.624711    1.407677
H      -1.283763   -4.091606    1.697146
H      -4.661030   -4.309849    0.163944
H      -4.128373   -4.458123   -1.348127
