20

C       0.010275    1.630278    0.129971
C       0.054466    0.102079    0.003878
C       0.815101   -0.545610    1.169940
C      -1.362001   -0.475940   -0.088207
C      -2.285583   -0.168786   -1.273429
C      -1.832739   -0.812759   -2.514263
N      -2.567267   -1.657002   -1.520573
C      -1.583451   -1.949246   -0.486643
O      -1.196238   -3.007992   -0.100620
H       1.021507    2.047909    0.167036
H      -0.510964    2.089320   -0.716701
H      -0.508119    1.931974    1.047849
H       0.586129   -0.146014   -0.924544
H       0.814195   -1.635494    1.085113
H       1.853029   -0.199243    1.197035
H       0.351977   -0.283761    2.128870
H      -1.891187   -0.300220    0.857922
H      -3.115788    0.526459   -1.251563
H      -2.409972   -0.652601   -3.418899
H      -0.777939   -1.012209   -2.683617
