20

C       0.041144    1.405347    0.014783
O      -0.026069   -0.015777   -0.013938
C       0.594782   -0.648639    0.998569
N       0.585584   -1.904549    1.073687
C       1.270321   -2.511833    2.196043
C       0.302582   -3.415279    3.003597
C      -0.262540   -4.561099    2.143168
C       0.974462   -3.920181    4.198736
C       1.549366   -4.339438    5.168183
H       1.078275    1.759614   -0.025846
H      -0.490123    1.755202   -0.870893
H      -0.445561    1.812467    0.909296
H       1.095019    0.019181    1.718618
H       2.084790   -3.140807    1.814916
H       1.719959   -1.770671    2.876926
H      -0.535121   -2.779455    3.322123
H      -0.989933   -5.148146    2.709645
H      -0.743667   -4.149293    1.253987
H       0.541408   -5.232276    1.825141
H       2.044841   -4.709782    6.031054
