17

O       0.330302    1.173555   -0.496479
C       0.138385   -0.141966   -0.037091
C       0.305176   -0.461486    1.483164
C      -0.253983    0.603449    2.443664
O      -1.569536   -0.010399    2.458595
C      -1.150858   -1.019850    1.521900
C      -1.330629   -0.563310    0.068140
C      -2.504029    0.042603   -0.552343
O      -2.025944   -1.254962   -0.949102
H       1.268025    1.308526   -0.665652
H       0.695797   -0.870204   -0.643107
H       1.189124   -1.016043    1.792722
H       0.190167    0.600379    3.445082
H      -0.271799    1.625622    2.049939
H      -1.459355   -2.030626    1.796988
H      -3.447997    0.049803   -0.011092
H      -2.363215    0.833228   -1.285798
