13

O      -0.046058    0.003152    0.005413
C      -0.038370    1.203763    0.010229
C      -1.269513    2.152781    0.032269
N      -0.626642    3.447753    0.029650
N      -1.043860    4.738553    0.041758
N       0.036794    5.461365    0.030357
C       1.157746    4.667996    0.011229
C       0.720755    3.368024    0.010800
N       1.083178    2.028840   -0.000596
H      -1.892791    1.988415   -0.850593
H      -1.867871    1.979653    0.930566
H       2.150658    5.081823   -0.000266
H       2.022895    1.669256   -0.015037
