20

C       0.324772    1.273762    0.579086
C      -0.082714    0.155476   -0.390649
C      -1.469695   -0.357171   -0.122850
C      -1.818332   -1.322799    1.015565
C      -2.596824   -2.101325   -0.054425
O      -3.225003   -3.113795   -0.079082
N      -2.208578   -1.247025   -1.159315
C      -2.674602    0.142908   -0.808007
C      -4.029655    0.416556   -0.198024
H       1.339736    1.621432    0.366860
H      -0.349783    2.132443    0.498959
H       0.301215    0.927932    1.617961
H      -0.033390    0.517299   -1.423841
H       0.628047   -0.677228   -0.318048
H      -0.956127   -1.895989    1.368234
H      -2.372891   -0.947390    1.878748
H      -2.452646    0.797083   -1.649871
H      -4.243091   -0.205048    0.674151
H      -4.091343    1.465612    0.109816
H      -4.816704    0.236258   -0.936890
