15

C       0.030162    1.506329   -0.025969
C      -0.000298   -0.028388    0.022817
O       0.702773   -0.542693    1.161517
C       2.102307   -0.527460    1.016720
C       2.702052   -1.245271    2.145391
N       3.208579   -1.800706    3.021414
C      -1.369046   -0.532128    0.093755
C      -2.505995   -0.916101    0.128245
H       1.053844    1.877344   -0.129177
H      -0.547134    1.863697   -0.882546
H      -0.406805    1.914870    0.888072
H       0.471893   -0.427365   -0.890758
H       2.417124   -1.020630    0.082279
H       2.515143    0.492741    1.002114
H      -3.507586   -1.268205    0.164630
