19

C       0.591671    1.250323   -0.315920
C      -0.098571   -0.067808    0.016940
C       0.369770   -1.279027   -0.855673
C       1.175521   -1.767659    0.352665
C       0.463483   -0.788111    1.287067
O       1.461187   -3.109970    0.655404
C       2.580637   -2.230636    0.439919
C       3.358320   -2.489333   -0.804884
O       4.505863   -2.155329   -0.959351
H       1.681320    1.133267   -0.338995
H       0.277033    1.623878   -1.296128
H       0.355307    2.018005    0.428450
H      -1.181999    0.070519    0.032549
H      -0.439860   -1.974172   -1.095397
H       0.914603   -1.041923   -1.772894
H       1.087356   -0.192530    1.958586
H      -0.309148   -1.292858    1.873927
H       3.167173   -1.975990    1.321363
H       2.778824   -3.021444   -1.591221
