21

C       0.367012    1.425910   -0.284434
C      -0.091836    0.024253    0.060856
C      -1.596424   -0.177598   -0.107269
N      -2.264813   -1.282633    0.581914
C      -1.919545   -2.672014    0.298988
C      -1.556777   -2.048398    1.605741
C      -0.121916   -1.728415    2.002882
C       0.623203   -0.763703    1.099965
N       0.864293   -1.032518   -0.331281
H       1.455826    1.492505   -0.223901
H       0.071781    1.692585   -1.306353
H      -0.070050    2.165704    0.395440
H      -2.081614    0.741673    0.246497
H      -1.837990   -0.254968   -1.175623
H      -2.767512   -3.351235    0.234140
H      -1.126849   -2.907428   -0.406684
H      -2.184872   -2.303685    2.458376
H      -0.145166   -1.277979    3.003125
H       0.450915   -2.659450    2.111282
H       1.482659   -0.302065    1.584409
H       0.387770   -1.876398   -0.629936
