19

C       0.094851    1.368562   -0.049111
O      -0.080303   -0.021477    0.170794
C      -1.400243   -0.558799   -0.016016
C      -1.145706   -2.097616   -0.140008
O      -2.231601   -2.883666    0.285973
C      -2.250277   -0.266543    1.238196
O      -1.689824   -0.902379    2.375706
C      -2.072491   -0.032884   -1.204179
C      -2.655293    0.391034   -2.166641
H       1.148340    1.575461    0.152729
H      -0.138025    1.646025   -1.083166
H      -0.519394    1.982335    0.623693
H      -0.952417   -2.344866   -1.186041
H      -0.233543   -2.303913    0.433233
H      -2.255224   -2.804083    1.247853
H      -2.341643    0.818622    1.382494
H      -3.251844   -0.676603    1.099227
H      -0.757868   -0.650223    2.393285
H      -3.169288    0.753770   -3.022800
