14

C      -0.388015   -1.163900   -0.486051
C      -0.185361   -0.025836   -0.159356
C       0.052762    1.354922    0.212088
N       0.292421    1.628073    1.649990
C       1.325798    2.633614    1.333688
C       1.449131    2.022742   -0.095871
C       2.559800    1.104659   -0.273734
N       3.459788    0.395434   -0.424543
H      -0.550918   -2.175675   -0.765713
H      -0.729228    1.991294   -0.229699
H      -0.514550    1.957665    2.167869
H       0.971469    3.672212    1.284666
H       2.214938    2.583829    1.966385
H       1.434375    2.735803   -0.921002
