23

C      -0.036034    1.615805    0.185129
C       0.034560    0.108050   -0.043709
N       0.708376   -0.538658    1.082637
C       0.755913   -2.007651    1.103905
C       1.395812   -2.644860   -0.153407
C       1.526071   -2.406319    2.392391
C       1.570805   -3.900816    2.715234
C      -0.637040   -2.496282    1.218014
N      -1.715534   -2.903857    1.298366
H       0.967131    2.054341    0.243952
H      -0.563065    2.106128   -0.638594
H      -0.557409    1.839062    1.119724
H      -0.979475   -0.302840   -0.104611
H       0.515503   -0.090819   -1.016500
H       1.658468   -0.189744    1.166355
H       2.437058   -2.314966   -0.232777
H       1.380654   -3.736078   -0.102973
H       0.866050   -2.346289   -1.060262
H       2.547737   -2.020170    2.279674
H       1.069251   -1.854430    3.219158
H       0.563305   -4.318563    2.801491
H       2.112096   -4.473138    1.956129
H       2.080692   -4.060199    3.669716
