23

C      -0.517823    1.535778    0.013272
C      -0.012097    0.095755    0.031566
C      -1.145664   -0.874165   -0.310787
C       1.275540   -0.184579   -0.824128
C       2.006114   -0.699397    0.439118
C       2.780343   -1.990625    0.395747
O       2.748095    0.371326    1.086501
C       1.669132    0.622031    2.014883
C       0.751022   -0.386258    1.314609
H       0.286841    2.255806    0.186992
H      -0.960558    1.771737   -0.961383
H      -1.289573    1.698139    0.775052
H      -1.534976   -0.680576   -1.316962
H      -0.806275   -1.915551   -0.280413
H      -1.976604   -0.774914    0.397561
H       1.129383   -0.932822   -1.609230
H       1.755489    0.696865   -1.255662
H       3.676037   -1.870279   -0.224644
H       3.100783   -2.289515    1.398472
H       2.175779   -2.795836   -0.034193
H       1.947930    0.329325    3.036295
H       1.362212    1.674143    2.027136
H       0.237250   -1.118093    1.939698
