18

N      -0.464827    1.465879   -0.293890
C       0.147719    0.326481    0.189356
O       1.229804    0.330617    0.738917
N      -0.574710   -0.836383   -0.054635
C      -0.130697   -2.088516    0.332916
N      -0.798540   -3.123733    0.035612
C      -0.316552   -4.406250    0.458311
C       0.423626   -5.288860   -0.509404
C       1.134793   -4.744676    0.712962
H      -0.042719    2.318439    0.039471
H      -1.469229    1.490213   -0.376261
H      -1.419845   -0.819572   -0.606296
H       0.805098   -2.051262    0.892963
H      -1.043392   -4.918757    1.084061
H       0.173717   -6.343356   -0.549735
H       0.686350   -4.849716   -1.465893
H       1.888399   -3.983506    0.546649
H       1.367441   -5.423185    1.526497
