21

C       0.024740    1.536476    0.038586
C       0.053049    0.024931    0.050733
C       0.881601   -0.802221   -0.983106
C       0.721856   -1.929830    0.072315
C       0.817483   -0.803368    1.136323
C      -0.793818   -2.198998    0.027032
C      -1.317810   -0.721696   -0.039312
C      -2.281824   -0.368053    1.062601
O      -3.349404    0.167032    0.896438
H       1.038640    1.948334    0.068303
H      -0.465364    1.913031   -0.866506
H      -0.525109    1.937400    0.897394
H       0.456974   -0.956810   -1.980190
H       1.909792   -0.439456   -1.062186
H       1.379513   -2.798641    0.093185
H       1.838472   -0.437425    1.270397
H       0.352650   -0.965386    2.112960
H      -1.103815   -2.776637   -0.847535
H      -1.146804   -2.727946    0.919223
H      -1.815663   -0.493777   -0.986181
H      -1.940287   -0.638298    2.089862
