18

C      -0.672547    0.096448    0.769646
O       0.060114   -0.913116    0.102022
C       0.568715   -0.538858   -1.158357
C       1.679931   -1.544227   -1.506875
C       2.810846   -1.460123   -0.587004
N       3.710856   -1.379608    0.132621
C      -0.510272   -0.573885   -2.228122
C      -1.108448    0.648303   -2.780220
O      -0.117514   -0.078985   -3.508134
H      -0.070591    1.007524    0.899662
H      -1.598577    0.358935    0.240087
H      -0.930055   -0.300362    1.753648
H       1.002378    0.472893   -1.123510
H       1.267016   -2.558543   -1.474439
H       2.025660   -1.353682   -2.527533
H      -1.091394   -1.497657   -2.250086
H      -2.112871    0.615575   -3.198720
H      -0.789759    1.619519   -2.404139
