19

C      -0.051586    1.562644   -0.065446
C      -0.000148    0.054986   -0.013708
O      -1.150897   -0.608117   -0.473225
C       1.322029   -0.681723   -0.199856
O       2.530084    0.019692   -0.276645
C       0.647669   -0.655262    1.136665
C       1.186893   -0.096219    2.446951
O       0.633969   -1.217781    3.172671
C       0.099729   -1.808591    1.964830
H       0.894892    1.997108    0.264784
H      -0.238719    1.907409   -1.090702
H      -0.857684    1.946404    0.567526
H      -1.242108   -0.433834   -1.417011
H       1.276006   -1.619352   -0.757229
H       2.625651    0.364549   -1.170806
H       2.279767   -0.049433    2.520240
H       0.759836    0.858990    2.778936
H      -0.992875   -1.891200    1.990066
H       0.535408   -2.795151    1.760632
