19

C      -0.143622    1.519037    0.059190
C       0.038994    0.014531    0.012978
O       1.132403   -0.501685    0.036732
C      -1.246282   -0.827129   -0.008916
C      -2.240342   -0.363937   -1.080384
C      -0.987133   -2.356861    0.129975
C      -1.448625   -2.332071    1.619469
C      -1.851490   -0.869405    1.427676
O      -2.448808   -0.058593    2.073978
H       0.800955    1.988710    0.335852
H      -0.448325    1.891268   -0.925108
H      -0.932492    1.789542    0.768426
H      -1.796704   -0.420261   -2.079859
H      -3.130518   -0.999904   -1.071498
H      -2.566496    0.663353   -0.901340
H      -1.632141   -2.956482   -0.514533
H       0.054719   -2.632427   -0.025534
H      -2.262900   -2.998740    1.915082
H      -0.634429   -2.441185    2.343427
