22

C      -0.049777    1.532510   -0.062132
C      -0.071549    0.002544   -0.070521
C      -1.484918   -0.613340    0.001015
C      -1.417028   -2.071968   -0.112961
C      -1.347481   -3.269676   -0.213935
C      -1.266179   -4.718592   -0.332161
N      -2.139516   -0.240218    1.267670
C      -3.062634    0.892896    1.216881
C      -3.573299   -0.497268    1.344293
H       0.974913    1.900607   -0.172765
H      -0.639773    1.946971   -0.887894
H      -0.448041    1.934080    0.873183
H       0.406185   -0.372401   -0.982369
H       0.504599   -0.388104    0.774589
H      -2.070310   -0.231224   -0.858821
H      -1.955756   -5.098166   -1.094398
H      -0.256008   -5.039621   -0.609602
H      -1.518794   -5.207017    0.615484
H      -3.038797    1.559057    2.074726
H      -3.210456    1.390515    0.259772
H      -4.059177   -0.932424    0.472939
H      -3.933099   -0.872357    2.297952
