19

C      -0.355918    1.552819   -0.208200
C       0.101314    0.095009   -0.016654
C       0.912331   -0.437880   -1.142575
C       2.179234   -0.920881   -1.272219
N       3.144681   -1.118927   -0.269132
C       2.352165   -1.304327   -2.651421
C       1.167699   -1.020724   -3.260496
N       0.734792   -1.084825   -4.579317
O       0.281093   -0.506450   -2.386674
H       0.504023    2.224290   -0.294483
H      -0.947775    1.651398   -1.122487
H      -0.971349    1.885750    0.633990
H       0.697325    0.011808    0.900190
H      -0.784064   -0.536239    0.149425
H       2.956454   -0.574532    0.563213
H       4.078486   -0.899042   -0.593798
H       3.229630   -1.740043   -3.102333
H       1.238793   -1.773468   -5.120947
H      -0.263223   -1.241739   -4.646189
