19

C       0.141226    1.204054   -0.494213
C       0.181703   -0.191504    0.130943
O       0.511308   -0.115030    1.528108
C       1.875110    0.014823    1.827208
C       2.649807   -1.206494    1.525758
N       3.248308   -2.164192    1.282106
C      -1.160967   -0.893511    0.028122
C      -1.525426   -2.002203    0.937118
N      -2.192308   -0.688525    1.054524
H       1.105478    1.714951   -0.412653
H      -0.102133    1.131350   -1.558524
H      -0.621467    1.817443   -0.006231
H       0.936195   -0.807474   -0.380833
H       2.344619    0.857514    1.300157
H       1.946729    0.217820    2.900106
H      -1.549640   -0.906301   -0.988558
H      -2.158907   -2.808264    0.578747
H      -0.807631   -2.280848    1.701895
H      -1.772198   -0.189447    1.836234
