20

O      -0.286722    1.378742   -0.079012
C      -0.272713   -0.010315   -0.360744
C      -1.038610   -0.703434    0.771485
C      -1.094627   -2.150231    0.606969
C      -1.125294   -3.344299    0.453202
C      -1.193186   -4.791906    0.266039
C      -2.465251   -5.249012   -0.432954
C      -3.050945   -6.571627   -0.108017
N      -3.731763   -5.329204    0.302857
H       0.179177    1.835126   -0.785308
H      -0.758097   -0.237094   -1.321654
H       0.752549   -0.407404   -0.404659
H      -0.557848   -0.443212    1.722536
H      -2.050766   -0.282742    0.811871
H      -0.323892   -5.130436   -0.314553
H      -1.119574   -5.296499    1.239842
H      -2.579068   -4.862307   -1.443406
H      -3.567934   -7.147489   -0.870278
H      -2.554536   -7.172470    0.650751
H      -3.567738   -5.151498    1.291449
