19

C       0.086589    1.518453    0.205432
C       0.112389    0.017348    0.060902
C      -0.941398   -0.845802    0.714103
C       0.488628   -0.916250    1.192583
C       1.338074   -2.031611    0.589576
N       0.981307   -1.983181   -0.832927
C       0.743044   -0.576874   -1.192174
C       2.774834   -1.779046    0.846206
N       3.905654   -1.593162    1.002090
H       1.090791    1.944980    0.103255
H      -0.551953    1.980003   -0.556683
H      -0.304640    1.812655    1.184032
H      -1.643299   -0.346277    1.373553
H      -1.347883   -1.688643    0.166129
H       0.753490   -0.550135    2.176605
H       1.097849   -3.021037    0.997822
H       1.664543   -2.439015   -1.424654
H       0.090346   -0.530325   -2.071808
H       1.665636   -0.019193   -1.424111
