20

C       0.142599    1.348798   -0.175218
O       0.134547   -0.058112   -0.070845
C       0.563442   -0.534567    1.188698
C       0.603368   -2.059165    1.067953
O       1.396031   -2.426359   -0.040575
C       1.222498   -2.739589    2.305301
C       0.507835   -2.395743    3.627232
C       1.235811   -4.194795    2.112488
N       1.226980   -5.345415    2.008496
H       1.151411    1.760349   -0.020751
H      -0.195532    1.601905   -1.182416
H      -0.536888    1.811165    0.556175
H       1.569908   -0.149076    1.424822
H      -0.127459   -0.207938    1.980032
H      -0.430951   -2.420845    0.946719
H       1.125254   -1.846790   -0.763666
H       2.268983   -2.414149    2.359075
H       0.619718   -1.335069    3.864188
H      -0.559008   -2.629809    3.567301
H       0.933677   -2.973363    4.450470
