17

C       0.017574    1.472397    0.029963
O       1.473176    1.485608   -0.020485
C       1.528164    0.060556    0.039031
C       2.550052   -0.692991   -0.793051
C       2.738906   -1.956267    0.022500
C       2.132022   -1.920963    1.212981
C       1.442037   -0.606614    1.436842
O      -0.020741   -0.648769    1.367401
C      -0.009194   -0.069891    0.053837
H      -0.378727    1.947842    0.932933
H      -0.407442    1.942593   -0.864514
H       2.207732   -0.892810   -1.815348
H       3.477231   -0.110041   -0.881731
H       3.319461   -2.794354   -0.348517
H       2.138931   -2.720011    1.945203
H       1.777859   -0.049235    2.317394
H      -0.637574   -0.602246   -0.662590
