17

O      -0.185388   -0.019005    0.406616
C      -0.053069    1.140278    0.105787
C      -1.224889    2.066975   -0.192119
C      -1.429831    3.169187    0.829632
C      -0.663990    3.516291    1.865981
C       0.646648    2.880042    2.293485
C       1.630772    2.735538    1.144742
O       2.280798    1.466180    0.983835
C       1.291479    1.835708    0.037365
H      -1.071442    2.528528   -1.179973
H      -2.130659    1.455163   -0.265995
H      -2.350660    3.727964    0.675711
H      -1.016746    4.334143    2.488877
H       1.097405    3.465620    3.099501
H       0.469693    1.877581    2.702034
H       2.265724    3.595458    0.935220
H       1.648424    2.061388   -0.969711
