14

C      -0.075332    1.181662   -0.169387
C       1.429815    1.501391   -0.071511
C       1.508045    0.199517    0.756531
O       0.091910   -0.040839    0.590121
C       2.329550   -0.920573    0.205434
N       2.736551   -1.032309   -1.026786
O       3.401309   -2.203543   -1.070384
N       3.373470   -2.783408    0.203555
N       2.734665   -2.011951    0.958110
H      -0.744993    1.881917    0.341709
H      -0.459019    0.983918   -1.175814
H       1.974361    1.473536   -1.014455
H       1.690666    2.405603    0.478230
H       1.764904    0.321333    1.814889
