17

O       0.027583    1.370793   -0.114581
C      -0.004434   -0.018875   -0.063190
C       1.151370   -0.622845    0.677641
C       2.453726    0.048952    0.732606
O       1.545174    0.114174    1.844685
C      -1.316740   -0.781767    0.068423
C      -2.372981   -0.058731   -0.761470
O      -1.523845   -0.070591   -1.942090
C      -0.522245   -0.788416   -1.236961
H       0.179854    1.662305    0.794999
H       1.114319   -1.703403    0.817047
H       3.354138   -0.536639    0.907805
H       2.586827    0.982628    0.192496
H      -1.494899   -1.549544    0.810523
H      -3.276390   -0.650857   -0.938862
H      -2.633974    0.957916   -0.451893
H       0.028000   -1.551898   -1.778376
