16

N       0.236195    1.413784   -0.073869
C       0.046712   -0.002764   -0.059471
C      -1.102996   -0.764847   -0.095363
N      -0.727788   -2.080573   -0.059112
C       0.642827   -2.195950   -0.000209
C       1.144065   -0.913356    0.000541
N       2.466916   -0.469883    0.048684
C       3.571957   -1.256853    0.107147
O       3.567727   -2.472070    0.126036
H      -0.148106    1.835127   -0.913366
H      -0.217405    1.860955    0.716223
H      -2.140207   -0.474519   -0.143169
H      -1.360997   -2.859619   -0.072940
H       1.147385   -3.143263    0.035777
H       2.568052    0.536172    0.037182
H       4.500125   -0.653566    0.136411
