23

C       0.398964    1.410037    0.374367
C      -0.165236    0.049433   -0.075842
C      -1.685246    0.157434   -0.240654
C       0.532986   -0.429139   -1.372869
C       1.871183   -1.068636   -0.936221
C       1.716110   -1.389956    0.592821
C       0.231297   -1.067734    0.914608
C       2.110220   -2.743348    0.956043
C       2.423649   -3.867941    1.245874
H       1.488835    1.395111    0.475343
H       0.148775    2.191341   -0.351652
H      -0.019660    1.707832    1.341968
H      -1.948121    0.903149   -0.999478
H      -2.118969   -0.800440   -0.547578
H      -2.166728    0.458453    0.696647
H      -0.097529   -1.181998   -1.859431
H       0.670752    0.383185   -2.093709
H       2.088599   -1.975451   -1.503696
H       2.714259   -0.389758   -1.089399
H       2.349280   -0.696522    1.158197
H       0.087882   -0.788843    1.962932
H      -0.378902   -1.958180    0.726785
H       2.706349   -4.857809    1.504933
