18

C      -0.018470    1.538002    0.096182
C      -0.073624    0.017095    0.012941
C       0.635224   -0.537285   -1.225754
C       0.469355   -2.033436   -1.399528
O       0.258198   -2.571934   -2.455779
O       0.602598   -0.570839    1.149732
C      -0.130860   -0.681157    2.290523
N       0.614464   -1.288603    3.258141
O      -1.278939   -0.323487    2.413314
H       1.018823    1.887487    0.113889
H      -0.518602    1.982107   -0.769825
H      -0.527898    1.879694    0.999481
H      -1.117038   -0.310605    0.042664
H       0.277843   -0.040916   -2.131800
H       1.710394   -0.328430   -1.130304
H       0.567876   -2.623171   -0.462169
H       1.608800   -1.371086    3.134708
H       0.248386   -1.257380    4.193640
