18

C       0.002965    1.536060   -0.084224
C       0.032780    0.024150    0.035595
O       0.591719   -0.488485   -1.187091
C       0.997483   -1.781313   -1.165066
N       1.092535   -2.575215   -0.186929
C       0.790532   -2.071765    1.144685
C       0.819415   -0.525654    1.246677
C       2.183815   -0.010344    1.305858
C       3.312468    0.400011    1.358042
H       1.018485    1.934329   -0.144156
H      -0.546140    1.830702   -0.982199
H      -0.494612    1.973111    0.786956
H      -0.992015   -0.364837    0.114676
H       1.264766   -2.101128   -2.170514
H      -0.199936   -2.435646    1.447158
H       1.510711   -2.503528    1.846027
H       0.286581   -0.218093    2.155453
H       4.310121    0.760591    1.407152
