19

C      -0.414782   -1.013370   -0.770067
C      -0.249327    0.106236   -0.363797
C      -0.047917    1.458558    0.125253
C      -0.259941    1.637291    1.652679
C       0.626012    2.861634    1.985183
O       1.396684    3.153817    0.814347
C       1.363946    2.029140   -0.023892
C       2.596738    1.174475   -0.154407
C       2.146772    2.091001   -1.285343
H      -0.565451   -2.000978   -1.129970
H      -0.729658    2.135343   -0.406894
H      -1.310159    1.788460    1.909095
H       0.090096    0.744774    2.176145
H       0.041652    3.756122    2.222732
H       1.289791    2.651975    2.834022
H       3.464222    1.484795    0.416875
H       2.479483    0.104921   -0.287358
H       1.721901    1.634725   -2.173100
H       2.722106    2.992753   -1.461637
