22

C      -0.013967    1.435436   -0.175602
O      -0.024186    0.035000    0.091110
C      -1.239567   -0.557025    0.158674
C      -1.074119   -2.016574    0.504798
N      -2.290216    0.120130   -0.048255
C      -3.604485   -0.463474    0.080671
C      -4.195045   -0.212317    1.480341
C      -5.682031   -0.556601    1.548035
O      -3.454808   -0.906476    2.483932
H       1.037435    1.727782   -0.174280
H      -0.471303    1.652577   -1.145186
H      -0.566746    1.983471    0.592710
H      -0.085612   -2.361570    0.198489
H      -1.172598   -2.145162    1.586200
H      -1.835666   -2.631218    0.020140
H      -4.260934    0.010195   -0.659999
H      -3.637728   -1.549340   -0.114800
H      -4.049827    0.847510    1.716881
H      -5.854445   -1.606403    1.276575
H      -6.060587   -0.400344    2.561748
H      -6.265210    0.063139    0.859801
H      -3.682921   -1.840285    2.414201
