23

C      -0.452671    1.523698   -0.077367
C       0.017038    0.069225    0.072517
C       0.747034   -0.445603   -1.138992
C       0.020761   -0.984041   -2.363969
C       1.019616   -1.839101   -1.650721
O       2.343324   -1.524740   -2.078910
C       2.227478   -0.173439   -1.506542
C       2.550798    0.903084   -2.532107
C       3.140256   -0.086398   -0.289055
H       0.394743    2.202710   -0.219901
H      -1.113731    1.634309   -0.942945
H      -0.998167    1.855577    0.811490
H       0.653334   -0.020215    0.961459
H      -0.851981   -0.574196    0.258463
H      -1.023142   -1.224526   -2.181357
H       0.238745   -0.637813   -3.369762
H       0.837176   -2.825494   -1.238334
H       1.880514    0.857103   -3.392870
H       2.468650    1.898318   -2.082580
H       3.576666    0.779070   -2.894601
H       4.183419   -0.187088   -0.603893
H       3.029022    0.875139    0.223714
H       2.919977   -0.888059    0.420761
