15

C      -0.022137    1.591702    0.006060
C       1.488028    1.802036   -0.001105
C       2.100974    0.634475    0.781179
C       0.942516   -0.245803    1.237222
C       0.049404    0.047827    0.010511
O       0.925234   -0.233420   -1.095489
C       2.019042    0.588078   -0.726440
H      -0.521153    1.993734    0.892297
H      -0.509114    1.976613   -0.894149
H       1.956762    2.774496   -0.062886
H       3.037162    0.716512    1.315996
H       1.212761   -1.303282    1.303444
H       0.486246    0.074808    2.178014
H      -0.876690   -0.512159   -0.099639
H       2.854063    0.567310   -1.411705
