17

C       0.290670    1.535225   -0.041686
C       0.047808    0.032139   -0.040015
C       0.746809   -0.717834   -1.193058
N       1.918889   -1.258074   -0.522510
C       2.957911   -1.848821   -1.234505
N       3.984082   -2.367400   -0.703690
C       1.770210   -1.220848    0.872036
O       2.480090   -1.677036    1.712575
O       0.610460   -0.551308    1.147611
H       1.362074    1.753888   -0.093996
H      -0.202499    1.998917   -0.902223
H      -0.108811    1.983227    0.871348
H      -1.023885   -0.180946   -0.021988
H       0.117072   -1.516616   -1.604313
H       1.024271   -0.041712   -2.007238
H       2.761143   -1.789576   -2.312899
H       4.601576   -2.725052   -1.430603
