11

O       0.030879   -0.062363    0.003116
C      -0.011652    1.131316    0.008617
N      -1.158636    1.889685    0.028705
C      -1.278080    3.293087    0.037229
O      -2.365269    3.821533    0.055805
C       0.021238    3.957683    0.023243
C       1.135827    3.219922    0.004221
O       1.162021    1.865151   -0.003212
H      -2.024532    1.366473    0.038443
H       0.055269    5.037134    0.028642
H       2.140986    3.623512   -0.007200
