16

O       0.163507    1.379232   -0.206064
C       0.029764    0.006462   -0.041865
C      -0.008511   -0.669390    1.362759
C      -1.467687   -0.142170    1.528159
C      -1.398751   -0.678905    0.071154
C      -0.615493   -1.904566    0.637244
C      -2.469731   -0.672722   -0.957029
O      -3.527455   -0.104346   -0.831721
H      -0.390007    1.840482    0.432978
H       0.702769   -0.454315   -0.769234
H       0.780932   -0.673741    2.114652
H      -2.112388   -0.699564    2.211013
H      -1.620444    0.931068    1.670237
H       0.035201   -2.444680   -0.055669
H      -1.201614   -2.584939    1.257508
H      -2.219932   -1.226961   -1.891514
