21

C       0.014943    1.535364    0.017609
C       0.019318    0.004314    0.035490
C       0.747563   -0.531778    1.265181
O      -1.319068   -0.502685    0.110427
C       0.645326   -0.532379   -1.280393
O       1.992103   -0.073648   -1.428530
C       2.854735   -1.163674   -1.752427
C       1.987673   -2.387521   -1.656784
C       0.737536   -2.029957   -1.388790
H       1.033608    1.923353   -0.059106
H      -0.547886    1.910954   -0.846551
H      -0.451336    1.924952    0.927034
H       0.313100   -0.108295    2.174711
H       0.663563   -1.619876    1.318761
H       1.805797   -0.264312    1.219834
H      -1.848206   -0.034759   -0.544850
H       0.031619   -0.124487   -2.107072
H       3.273329   -1.027764   -2.763313
H       3.702090   -1.181125   -1.051137
H       2.363823   -3.392144   -1.803127
H      -0.122746   -2.672538   -1.264393
