23

O       0.016388    1.482214   -0.061036
C       0.074014    0.063063   -0.053303
C      -1.351488   -0.466214    0.031281
C      -1.418168   -1.996433    0.050008
C      -2.846778   -2.563352    0.096029
C      -2.896169   -4.111526   -0.028483
C      -4.062510   -4.577972    0.877856
C      -4.248601   -3.404814    1.811187
C      -3.600213   -2.321034    1.388777
H       0.915477    1.819249   -0.110748
H       0.559733   -0.320811   -0.965912
H       0.659466   -0.306891    0.804767
H      -1.817233   -0.047189    0.930777
H      -1.917123   -0.074568   -0.823399
H      -0.916865   -2.389648   -0.845409
H      -0.856565   -2.384076    0.911231
H      -3.409108   -2.104130   -0.733277
H      -2.997991   -4.446422   -1.064247
H      -1.954963   -4.524369    0.352966
H      -4.980811   -4.761283    0.301517
H      -3.840857   -5.514574    1.402219
H      -4.877406   -3.453182    2.693934
H      -3.625776   -1.352606    1.876587
