17

C      -0.111827    1.516071    0.064498
C       0.160004    0.049691    0.009845
O      -0.744844   -0.837509    0.687396
C       0.655265   -0.927885    0.997079
C       1.334618   -1.784098   -0.102100
C       0.786220   -0.763390   -1.163758
C      -0.105787   -1.865344   -1.803869
C       0.429905   -2.862305   -0.750054
O       0.267152   -4.029062   -0.556343
H       0.778780    2.086707   -0.217467
H      -0.917331    1.785026   -0.628579
H      -0.416048    1.810516    1.072352
H       0.933141   -0.833726    2.040902
H       2.394183   -1.998879    0.035349
H       1.469205   -0.214753   -1.809694
H      -1.186043   -1.708708   -1.778598
H       0.195945   -2.146922   -2.817724
