16

C      -0.140265    1.463093    0.065568
C       0.042364   -0.047936   -0.004992
C       0.888779   -0.519772   -1.193023
C       2.170839   -0.443844   -0.384951
C       1.215342   -0.594256    0.859583
O       1.138014   -2.038357    0.669425
C       1.591190   -1.799089   -0.660165
C       2.043339   -2.868050   -1.485623
N       2.414380   -3.720944   -2.173518
H       0.811896    1.988044   -0.067309
H      -0.825255    1.812323   -0.713077
H      -0.559293    1.756574    1.033724
H      -0.904191   -0.572973    0.160462
H       0.749629   -0.351577   -2.253147
H       3.151928   -0.029669   -0.565960
H       1.390294   -0.301090    1.891857
