14

O       0.489401    0.878103   -0.659074
C       0.160088   -0.228814    0.088856
C       0.023902   -0.191513    1.637270
O       0.555465    0.427802    2.504612
C      -1.191968   -1.145122    1.583506
C      -1.335927   -0.750291    0.081929
O      -2.123472    0.408512   -0.098249
C      -1.687093   -1.812210   -0.857082
N      -1.974842   -2.660235   -1.588367
H      -0.181452    1.553183   -0.495359
H       0.835099   -1.047712   -0.185571
H      -0.912288   -2.191971    1.731954
H      -2.038272   -0.893894    2.224877
H      -3.052075    0.191091    0.040705
