20

C      -0.145937    1.521076   -0.035282
C      -0.010214    0.031491    0.243488
O       0.860281   -0.413219    0.971012
N      -0.938231   -0.759970   -0.371843
C      -0.965952   -2.205163   -0.224544
C      -2.230551   -2.704144    0.524228
C      -3.213592   -3.061565   -0.622610
O      -2.548508   -2.734387   -1.844426
C      -1.157037   -2.874763   -1.590299
H       0.822866    1.905524   -0.362896
H      -0.901762    1.762607   -0.787236
H      -0.400369    2.031738    0.897961
H      -1.630103   -0.343960   -0.974604
H      -0.041023   -2.481100    0.281181
H      -1.995058   -3.583599    1.128717
H      -2.618005   -1.933608    1.192656
H      -3.465143   -4.131868   -0.605587
H      -4.147112   -2.493190   -0.593882
H      -0.608126   -2.387215   -2.398751
H      -0.864702   -3.936846   -1.545481
