13

C       0.058034    1.486708   -0.025659
C       0.021470    0.001335    0.082282
C      -0.906287   -0.880655    0.831517
C       0.613811   -0.990204    1.061036
C       1.207030   -1.623766   -0.165870
O       1.979040   -2.483440   -0.438750
O       0.555672   -0.765888   -1.046365
H       1.067428    1.834507   -0.262882
H      -0.618981    1.831495   -0.814226
H      -0.259075    1.941931    0.916684
H      -1.439097   -0.426411    1.662043
H      -1.437216   -1.675874    0.318362
H       1.079817   -0.870968    2.028043
