19

O       0.651029    0.057772    1.424068
C       0.151182    0.109968    0.092969
C      -1.219203   -0.544383   -0.018309
C      -2.018192   -0.629673   -1.352623
C      -1.071814   -1.408110   -2.289305
C      -1.118676   -2.685231   -1.427708
O      -2.526623   -3.051072   -1.567998
C      -2.754102   -1.918612   -0.726982
C      -1.409325   -2.075982    0.008673
H       0.753883   -0.869726    1.660391
H       0.078061    1.175732   -0.151556
H       0.870793   -0.334860   -0.609047
H      -1.855566   -0.114175    0.764849
H      -2.562232    0.226715   -1.746721
H      -1.495402   -1.609780   -3.275025
H      -0.087001   -0.952615   -2.403140
H      -0.430116   -3.508275   -1.611990
H      -3.745546   -1.835591   -0.285445
H      -1.271970   -2.718753    0.877277
