17

C       0.131015    1.565571   -0.264220
C       0.074440    0.126806   -0.057910
C       0.026309   -1.063883    0.118121
C      -0.017954   -2.501058    0.311595
O      -0.168990   -2.911493    1.695659
C      -1.263757   -3.785247    1.367428
C      -1.312868   -3.284430   -0.096703
C      -2.512868   -2.428291   -0.410658
O      -3.209842   -2.567970   -1.381951
H       1.060289    1.860362   -0.763184
H      -0.705902    1.909863   -0.881194
H       0.081208    2.098180    0.691611
H       0.876992   -2.963489   -0.126452
H      -0.999060   -4.844519    1.468468
H      -2.150372   -3.577157    1.978628
H      -1.179251   -4.031221   -0.878600
H      -2.727787   -1.645377    0.349958
