21

C       0.010992    1.572325   -0.066409
C      -0.021668    0.044076    0.019646
C       0.767541   -0.502085    1.213679
C       0.733267   -2.033180    1.289016
N       1.464466   -2.570502    2.425506
C       2.833814   -2.662828    2.561674
C       3.048247   -3.175861    3.814063
N       1.853196   -3.400606    4.455847
C       0.932284   -3.025349    3.597180
H       1.037486    1.941041   -0.168158
H      -0.560040    1.934049   -0.926742
H      -0.416001    2.028202    0.833406
H      -1.063390   -0.297172    0.085474
H       0.379068   -0.384426   -0.908712
H       1.811204   -0.169177    1.153971
H       0.366494   -0.093042    2.149328
H      -0.300770   -2.383610    1.370712
H       1.144959   -2.467427    0.370756
H       3.501346   -2.367616    1.768609
H       3.992493   -3.401757    4.286146
H      -0.136203   -3.062261    3.754998
