16

O      -1.000139    1.156060   -0.075483
C       0.146348    0.936814    0.223184
C       1.289548    1.883850   -0.051609
N       2.616680    1.227938   -0.366876
C       2.437586    0.554177   -1.672436
C       2.645705    2.015593   -1.671517
C       1.342985    2.708368   -1.344411
C       0.309576    3.315421   -2.181262
O       1.181614    4.104280   -1.345212
H       0.448142   -0.000336    0.743313
H       1.418053    2.535293    0.821502
H       3.278681   -0.080228   -1.932410
H       1.464089    0.148376   -1.942601
H       3.545088    2.504573   -2.027990
H       0.476383    3.421521   -3.251830
H      -0.726511    3.266195   -1.857406
