15

C      -0.053689    1.512349    0.004930
C       1.438467    1.902727   -0.031604
N       2.208501    1.483701    1.154330
C       2.298122    0.672132   -0.090107
C       1.339891   -0.460599   -0.075994
C       0.071672    0.018764    0.001253
O      -0.823333   -0.958157    0.098467
N      -0.119136   -2.182742    0.066582
C       1.155027   -1.862734   -0.026904
H      -0.551326    1.894215    0.901917
H      -0.595087    1.892028   -0.869178
H       1.722680    2.816392   -0.541853
H       3.035275    2.073954    1.230115
H       3.230965    0.644216   -0.641059
H       1.878422   -2.665333   -0.061766
