19

C      -0.111902    1.490726    0.051130
C       0.041258   -0.010054   -0.004851
O      -0.175497   -0.691582    1.243768
C       1.142606   -0.695841    0.687374
C       1.629759   -2.027067    0.149096
O       0.588973   -2.787094   -0.438150
C      -0.130472   -2.137701   -1.445695
C      -1.556002   -1.779732   -1.136668
C      -0.506088   -0.692859   -1.233132
H       0.392079    1.967286   -0.796596
H      -1.170662    1.769121    0.012094
H       0.313441    1.884421    0.977607
H       1.884127   -0.113692    1.237031
H       2.452739   -1.839132   -0.561910
H       2.023657   -2.648727    0.959518
H       0.128631   -2.467792   -2.450420
H      -2.296522   -1.849169   -1.925353
H      -1.896072   -2.034548   -0.140127
H      -0.531508   -0.057869   -2.113363
