20

C       0.088257    1.483057    0.177143
C       0.041887   -0.020636    0.071458
C       0.491461   -0.939403   -1.091858
N      -0.030643   -1.967651   -0.071953
C       0.723229   -1.094331    0.958082
C      -1.192976   -0.973501    0.102871
C      -2.153986   -1.136959    1.251230
C      -2.484648   -2.458085    1.805084
O      -1.717636   -1.512727    2.558846
H       1.116944    1.849735    0.090897
H      -0.502753    1.953808   -0.616399
H      -0.307845    1.822709    1.140165
H      -0.077906   -0.916412   -2.026459
H       1.564593   -1.032968   -1.279604
H       1.810132   -1.189800    0.874317
H       0.381432   -1.228942    1.980661
H      -1.815754   -0.930550   -0.802158
H      -2.939371   -0.377568    1.259401
H      -3.485784   -2.652617    2.185733
H      -1.928615   -3.322850    1.450416
