18

N       0.832804    0.738939   -0.133976
C       0.338931   -0.410937    0.024936
O      -0.988851   -0.600391   -0.107461
C      -1.514126   -1.878484    0.198165
C      -2.346382   -2.007815    1.494942
C      -3.376543   -2.875371    0.689691
C      -2.753119   -2.281322   -0.622545
C      -3.193724   -4.306927    0.839899
C      -3.025920   -5.491774    0.961407
H       1.843490    0.700208   -0.020452
H       0.889193   -1.332860    0.261627
H      -0.724649   -2.636690    0.144694
H      -1.877516   -2.462034    2.368624
H      -2.779415   -1.041489    1.763566
H      -4.423843   -2.613165    0.856866
H      -3.299331   -1.390633   -0.941079
H      -2.615161   -2.955119   -1.468478
H      -2.891234   -6.539314    1.070832
