13

C       0.037339    1.490708   -0.005323
C      -0.083820    0.008219   -0.044134
C      -1.106477   -0.848149    0.214358
C      -0.533288   -2.136569   -0.011062
N      -1.141049   -3.365935    0.187423
N       0.725351   -2.054821   -0.384593
O       1.014420   -0.679988   -0.394523
H       0.809854    1.800476    0.706025
H       0.317576    1.886231   -0.987128
H      -0.911287    1.940428    0.293431
H      -2.107846   -0.609281    0.532238
H      -2.112060   -3.395188   -0.088818
H      -0.616180   -4.128592   -0.220390
