11

N       0.219224    1.447736    0.138822
C       0.013202    0.066025    0.007064
C      -1.089972   -0.762768   -0.010096
O      -2.384614   -0.388348    0.073930
N      -0.695926   -2.049896   -0.112203
N       0.616518   -2.089381   -0.170546
N       1.041075   -0.824842   -0.085370
H      -0.522417    1.865782    0.689376
H       0.237533    1.923434   -0.758837
H      -2.908368   -1.199312    0.074548
H       2.028244   -0.620361   -0.086394
