20

C       0.024894    1.530443   -0.060834
C       0.129815    0.028748    0.002134
C       0.354043   -0.735582   -1.307442
C       1.113778   -1.983078   -0.883843
O       2.414886   -1.708373   -0.337409
C       1.331346   -1.982309    0.563801
C       0.728307   -0.728333    1.141685
C       1.348917   -0.126902    2.374454
N      -0.742291   -0.738264    0.933950
H       0.908727    1.964226   -0.540935
H      -0.851269    1.831784   -0.647157
H      -0.073038    1.978533    0.932442
H      -0.599682   -0.996300   -1.778592
H       0.939976   -0.146638   -2.021776
H       1.041573   -2.900723   -1.461103
H       1.422359   -2.888555    1.158671
H       2.424044    0.019757    2.227048
H       0.905399    0.840563    2.626922
H       1.216714   -0.788830    3.238340
H      -1.165754   -0.086440    1.593698
