20

C      -0.456335    1.174818    0.040029
O       0.176382   -0.103357   -0.016749
C       0.889861   -0.467551    1.069877
C       1.507320   -1.829882    0.877591
N       0.970908    0.305000    2.073934
C       1.757141   -0.131538    3.229224
C       3.202820    0.020261    3.044530
C       4.388980    0.150047    2.880267
C       5.823303    0.317130    2.692171
H       0.282705    1.968454    0.180017
H      -0.970728    1.290936   -0.915127
H      -1.168135    1.220577    0.869040
H       1.305149   -2.201015   -0.126895
H       2.586865   -1.778120    1.042374
H       1.097980   -2.539747    1.604386
H       1.443457    0.477422    4.085079
H       1.538658   -1.175595    3.505090
H       6.354291   -0.637044    2.782901
H       6.047527    0.727102    1.701110
H       6.245195    1.002766    3.435411
