16

O      -0.086301   -0.017600    0.089241
C      -0.008671    1.189032    0.105881
C       1.265032    1.933697    0.003891
C       1.256225    3.275567    0.020557
C       2.506231    4.084631   -0.015421
O       2.507403    5.286116    0.189538
N       3.646250    3.360786   -0.253018
C       3.623484    2.006215   -0.797555
C       2.558956    1.169077   -0.087442
H      -0.912510    1.829507    0.197182
H       0.337317    3.846733    0.109284
H       4.472427    3.924924   -0.389617
H       3.417903    2.021628   -1.878899
H       4.612490    1.561349   -0.660239
H       2.891725    0.910312    0.926541
H       2.395291    0.223623   -0.610888
