18

O       0.124165    1.414437   -0.109387
C       0.085940    0.025283   -0.045656
C       0.027437   -0.660538    1.339778
N      -1.407199   -0.149983    1.465582
C      -2.154615   -1.180293    2.239414
C      -1.605990   -2.515866    1.690240
C      -0.619815   -1.930212    0.676378
O       0.090191   -2.792588   -0.155086
C      -1.288522   -0.685198    0.035664
H      -0.523787    1.719777    0.540875
H       0.799118   -0.381831   -0.760492
H       0.723383   -0.599436    2.180182
H      -1.963401   -1.035541    3.306254
H      -3.226519   -1.051099    2.067128
H      -1.102400   -3.125676    2.448876
H      -2.362607   -3.138186    1.203652
H       0.513129   -3.465942    0.388089
H      -2.134184   -0.652814   -0.654675
