20

C      -0.174037    0.984721   -1.908743
C      -0.010843   -0.171275   -0.942400
C       1.323249   -0.589668   -0.364149
C       2.626887    0.110116   -0.687580
C       0.264168    0.017361    0.541027
C       0.420376    1.364284    1.159847
C      -0.485966    1.834205    2.216951
O       0.830434    1.383778    2.536204
H       0.518801    1.806495   -1.713867
H      -0.001889    0.652306   -2.938431
H      -1.188883    1.394644   -1.859883
H      -0.687007   -0.994315   -1.161714
H       1.444860   -1.662977   -0.239187
H       2.511814    1.188098   -0.822395
H       3.355800   -0.040284    0.115820
H       3.061337   -0.288547   -1.611007
H      -0.237285   -0.677995    1.209250
H       0.908278    2.128846    0.557593
H      -0.664476    2.900959    2.349785
H      -1.296050    1.186524    2.551694
