20

C      -0.049916    1.558158    0.123192
C       0.059146    0.038794   -0.039197
C       0.726039   -0.454653   -1.340982
C       0.009221    0.016445   -2.609473
N       2.160780   -0.133844   -1.377364
C       2.887445   -1.275179   -1.209958
C       2.137191   -2.409950   -1.210643
C       0.743409   -2.016240   -1.306772
O      -0.269816   -2.687245   -1.354143
H       0.930538    2.049291    0.100209
H      -0.667652    2.012044   -0.656795
H      -0.505576    1.803123    1.087329
H       0.617023   -0.381197    0.806772
H      -0.936388   -0.417289   -0.007188
H      -0.040655    1.107134   -2.673325
H       0.530189   -0.351485   -3.497542
H      -1.005925   -0.389972   -2.614902
H       2.503016    0.751396   -1.040446
H       3.965082   -1.201105   -1.117817
H       2.500970   -3.423967   -1.161645
