20

O      -0.027075    1.382735   -0.173480
C       0.020810   -0.009940    0.106548
C      -1.391277   -0.550192    0.043278
C      -2.105433   -0.608854   -1.335627
C      -2.683465   -1.993827   -0.935015
C      -2.736474   -3.081239   -1.986010
O      -3.167885   -4.280953   -1.357662
C      -1.600616   -2.083600    0.175938
H       0.871365    1.724894   -0.156272
H       0.650635   -0.541660   -0.626927
H       0.448773   -0.203540    1.104708
H      -2.008345   -0.008131    0.767546
H      -2.808507    0.189129   -1.581875
H      -1.379546   -0.695648   -2.152753
H      -3.677587   -1.887228   -0.488335
H      -3.424173   -2.783062   -2.795404
H      -1.737020   -3.205467   -2.436623
H      -3.180958   -4.979544   -2.018240
H      -0.723577   -2.642139   -0.171878
H      -1.897831   -2.478869    1.149156
