19

N      -0.006392   -0.995321    0.766240
C      -0.030854    0.091418    0.371465
C      -0.025145    1.473676   -0.134987
C      -0.840719    2.415294    0.791959
C       0.214491    2.885607    1.803186
C       1.432208    3.051252    0.909355
C       1.952134    4.420822    0.543050
C       2.783210    3.475446    1.389942
N       1.339831    2.045669   -0.152053
H      -0.450505    1.453275   -1.144933
H      -1.202139    3.259417    0.197536
H      -1.700814    1.913495    1.237466
H      -0.069597    3.804237    2.321129
H       0.387940    2.107506    2.556774
H       2.260921    4.568475   -0.485397
H       1.516871    5.291163    1.023667
H       2.907374    3.693249    2.445546
H       3.652735    3.021205    0.925284
H       2.033332    1.318004   -0.028509
