15

N      -0.055239    1.419602    0.132215
C      -0.024574    0.043921    0.059156
C      -1.168046   -0.803036    0.072903
C      -0.673194   -2.086217    0.057847
N      -1.288907   -3.306673    0.125131
H      -2.242689   -3.334548   -0.199042
H      -0.725378   -4.079717   -0.198027
O       0.659582   -2.107755    0.030618
C       1.095520   -0.778830    0.029394
C       2.490554   -0.499547   -0.016041
O       3.404102   -1.306470   -0.053270
H       0.783068    1.899637   -0.156957
H      -0.891750    1.853238   -0.227196
H      -2.204477   -0.507796    0.110021
H       2.697616    0.599351   -0.017113
