22

C       0.023488    1.308102    0.248757
O       0.040836   -0.094975    0.126961
C      -1.247109   -0.657015   -0.046798
C      -1.096640   -2.174201   -0.126333
C      -0.341321   -2.624530   -1.384394
N      -0.447046   -2.637523    1.092422
C      -0.761976   -3.821412    1.688945
C       0.059100   -4.165055    2.923411
O      -1.639136   -4.558043    1.269689
H       1.055914    1.638743    0.385258
H      -0.387640    1.788108   -0.652593
H      -0.573985    1.634659    1.114237
H      -1.896051   -0.385109    0.801300
H      -1.715358   -0.273472   -0.967641
H      -2.094126   -2.622960   -0.130670
H      -0.251976   -3.713387   -1.393243
H      -0.879150   -2.317194   -2.287633
H       0.658889   -2.183938   -1.414294
H       0.315307   -2.075992    1.435848
H      -0.623416   -4.411406    3.740315
H       0.653133   -5.059492    2.714390
H       0.728990   -3.362752    3.243472
