18

C       0.103058    1.089775    0.483877
O      -0.119677    0.044990   -0.448166
C      -1.324971   -0.604221   -0.259119
C      -1.427157   -2.011734   -0.743479
C      -0.256116   -2.694210   -1.411519
C      -1.426352   -1.739710    0.770792
C      -0.298642   -2.094038    1.576602
C       0.634766   -2.398890    2.273206
H       1.064701    1.541187    0.230615
H      -0.681273    1.858656    0.415101
H       0.139472    0.707653    1.511185
H      -2.202601    0.040840   -0.339630
H      -2.401351   -2.293489   -1.133951
H       0.690823   -2.352840   -0.992008
H      -0.317952   -3.779726   -1.285610
H      -0.250046   -2.475977   -2.484423
H      -2.387281   -1.836625    1.268804
H       1.460255   -2.667066    2.884319
