16

O       0.059152   -0.008114    0.133006
C       0.004693    1.194244    0.038498
C      -1.308530    2.027441   -0.083814
C      -0.812871    3.438738   -0.403808
C      -0.790896    4.699993    0.534224
C       0.756093    4.834930    0.244229
C       0.667459    3.383191   -0.145314
C       1.137570    2.162814    0.127442
H      -1.981005    1.587921   -0.823930
H      -1.815913    1.979044    0.886706
H      -1.057104    3.750144   -1.424981
H      -1.422863    5.544931    0.253434
H      -0.972153    4.432863    1.577880
H       0.936641    5.499948   -0.606228
H       1.427785    5.105836    1.061018
H       2.120701    1.871884    0.473507
