17

C      -0.006873    1.558023   -0.163642
C       0.031728    0.058968    0.015175
N       1.349996   -0.594805   -0.003513
C       0.545245   -0.640272    1.226120
C       1.120316    0.074575    2.424544
C       2.008060   -0.823618    3.259354
O       2.188810   -1.999198    3.072871
C       2.669148   -0.142979    4.398484
N       3.174375    0.402742    5.283939
H       0.840376    2.044389    0.324915
H       0.036681    1.813818   -1.227386
H      -0.933200    1.976815    0.244374
H      -0.778066   -0.464646   -0.492627
H       1.317191   -1.486637   -0.488393
H       0.068041   -1.585487    1.473832
H       1.712783    0.945939    2.125091
H       0.332513    0.459534    3.089157
