16

O      -0.041981    1.443720   -0.009772
C      -0.002512    0.038011    0.061810
C       0.511399   -0.538614    1.397326
O      -0.030708   -1.854490    1.464678
C      -1.320545   -1.823481    0.879032
C      -2.425517   -1.135371    1.707872
O      -2.349878    0.055307    0.891435
C      -1.407540   -0.561214   -0.010955
H       0.862102    1.768468   -0.059904
H       0.580798   -0.396768   -0.765980
H       1.599493   -0.624892    1.459946
H       0.154707    0.099323    2.218813
H      -1.537110   -2.811891    0.473171
H      -3.413993   -1.607655    1.646039
H      -2.172708   -0.946968    2.757513
H      -1.804676   -0.637203   -1.027119
