17

C       0.069157    1.454326   -0.056302
C       1.396698    0.726625    0.029131
C       1.985169    0.480999    1.402354
O       0.883117    0.022425    2.196064
C      -0.036543   -0.699298    1.367693
C       0.085456   -0.051420    0.004280
N       0.020871   -0.790987   -1.237321
C       1.100709   -0.489974   -1.863207
N       2.027452    0.302512   -1.191099
H      -0.248716    1.981116    0.836795
H      -0.202890    1.914757   -0.999157
H       2.779176   -0.277527    1.321394
H       2.385901    1.361623    1.914336
H       0.230111   -1.763901    1.288607
H      -1.019109   -0.614625    1.840889
H       1.336490   -0.846483   -2.861944
H       2.643473    0.910179   -1.709897
