15

C      -0.029149    1.506119    0.005382
C      -0.041377    0.008515   -0.001226
C      -1.158483   -0.725172   -0.154409
N      -1.095703   -2.108296   -0.150206
C       0.113157   -2.705281    0.010750
O       0.037646   -4.046143   -0.004106
N       1.233973   -2.096276    0.164091
C       1.256817   -0.690805    0.171631
O       2.296011   -0.074693    0.313739
H       0.622650    1.885938   -0.787934
H      -1.031847    1.921898   -0.128445
H       0.389061    1.880189    0.945391
H      -2.148086   -0.304607   -0.286476
H      -1.918262   -2.677706   -0.264556
H       0.945974   -4.358062    0.117180
