19

C      -0.069183    1.576026   -0.177915
C       0.016756    0.082643    0.036386
O      -1.161842   -0.615466   -0.281700
C       1.300247   -0.677483   -0.200508
O       2.471326    0.099780   -0.240108
C       2.966421    0.244614    1.096110
C       1.756882    0.120796    2.058400
O       1.346063    1.337949    2.657648
C       0.722760   -0.603999    1.193799
H       0.913656    2.047290   -0.098896
H      -0.432410    1.781454   -1.192358
H      -0.771365    2.041514    0.521227
H      -1.310107   -0.524124   -1.230286
H       1.311566   -1.581465   -0.803695
H       3.705237   -0.542810    1.304063
H       3.455639    1.218513    1.184579
H       2.023615   -0.515764    2.906876
H       0.996845    1.915316    1.972768
H       0.184145   -1.442533    1.616765
