17

C      -0.129793    1.505754   -0.003046
N       0.095051    0.071315    0.114259
C       1.353755   -0.553451   -0.156645
C       2.579828    0.244890    0.328497
C       1.973676    0.291855    1.763992
C       0.760463   -0.510313    1.266145
C       0.096695   -1.613502    1.982743
O       0.410128   -1.986996    3.088520
H       0.709726    2.135880    0.318214
H      -0.349112    1.734309   -1.050110
H      -1.006365    1.770516    0.594778
H       1.374158   -1.389779   -0.848312
H       3.495224   -0.347514    0.283406
H       2.758096    1.198577   -0.176321
H       2.551108   -0.284050    2.487632
H       1.757915    1.275374    2.189181
H      -0.722298   -2.091720    1.402500
