13

C      -0.094120    1.612976    0.013425
C       1.404273    1.297540    0.034157
C       1.254505    0.077094    0.992417
C       2.007109   -0.784353   -0.014289
N       1.216036    0.115524   -0.959464
C       0.022305    0.086223    0.037543
H      -0.512540    2.092826    0.901702
H      -0.481905    2.052813   -0.909089
H       2.264256    1.962985   -0.063793
H       1.259187    0.074817    2.088072
H       3.091762   -0.657318   -0.098222
H       1.738804   -1.843205   -0.094905
H      -0.750363   -0.679374   -0.056405
