13

O      -0.188262    0.015795    0.001743
C      -0.038378    1.204725    0.009695
N       1.179685    1.880622    0.002219
C       1.268645    3.338288    0.013146
C       2.775037    3.604542   -0.000790
O       3.327442    4.671854    0.001957
N       3.361130    2.355959   -0.017166
C       2.457688    1.282469   -0.016236
O       2.741078    0.120954   -0.028807
H      -0.876490    1.930465    0.024481
H       0.804105    3.794239   -0.866960
H       0.823113    3.779751    0.910304
H       4.357934    2.200593   -0.029156
