15

O       0.180125    1.356486   -0.198076
C       0.043989   -0.014872   -0.041360
C       0.006636   -0.666408    1.395891
C      -1.474670   -0.150262    1.507045
C      -1.409204   -0.672215    0.033147
C      -2.481347   -0.664453   -0.988270
O      -3.594803   -0.242379   -0.786541
C      -0.617494   -1.854878    0.668769
O      -0.566436   -3.040398    0.617773
H      -0.402240    1.826427    0.408197
H       0.733411   -0.470300   -0.753773
H       0.782050   -0.651244    2.157747
H      -2.140570   -0.677362    2.189725
H      -1.598096    0.927783    1.622308
H      -2.188470   -1.081886   -1.976421
