16

C      -0.022287    1.400934   -0.487951
C      -0.092491    0.005536    0.152782
O       0.292839    0.037022    1.503577
C      -1.499223   -0.561871    0.044605
O      -2.222109   -0.747326    0.990860
O      -1.846266   -0.824969   -1.236471
C      -3.174136   -1.326757   -1.430361
C      -4.146063   -0.236735   -1.560033
N      -4.917427    0.614278   -1.677293
H       0.988948    1.793644   -0.360796
H      -0.257920    1.358579   -1.554357
H      -0.720948    2.082881    0.005757
H       0.578163   -0.670720   -0.396014
H      -0.508548   -0.115344    2.023946
H      -3.144904   -1.905521   -2.355578
H      -3.460214   -1.971112   -0.595415
