21

C      -0.349601    1.512061   -0.148720
C       0.178222    0.092250   -0.114681
O       1.512003   -0.019579   -0.668642
C       1.954445   -0.825028    0.439227
C       0.643961   -0.568242    1.216855
C       0.766614    0.321424    2.451276
C       1.393398   -0.424369    3.644407
C       1.606833    0.490247    4.828556
O       1.154435    0.313614    5.929771
H       0.300778    2.200292    0.396865
H      -0.408104    1.854283   -1.186744
H      -1.356330    1.561728    0.279992
H      -0.512030   -0.565383   -0.664219
H       2.124689   -1.869869    0.147410
H       2.875577   -0.430983    0.888794
H       0.085690   -1.473467    1.471801
H       1.375453    1.203209    2.214999
H      -0.223810    0.693437    2.740954
H       0.774304   -1.268731    3.961711
H       2.378486   -0.814742    3.348506
H       2.233399    1.386562    4.604609
