17

O      -0.132599    1.330634   -0.073250
N       0.030252   -0.070105   -0.038633
C      -1.096543   -0.651926    0.032547
C      -2.491785   -0.058812    0.122507
N      -3.369017   -1.172979    0.530927
C      -3.389106   -2.381630   -0.312439
C      -2.137756   -2.541356   -1.183875
C      -1.271616   -2.139005    0.065902
C      -2.561388   -2.317905    0.931371
H       0.779205    1.640247   -0.083787
H      -2.532181    0.728126    0.881776
H      -2.818649    0.386053   -0.823167
H      -4.357175   -2.837299   -0.487283
H      -1.981638   -3.591145   -1.443788
H      -2.038224   -1.928496   -2.085475
H      -0.374925   -2.719659    0.264952
H      -2.665754   -2.768616    1.910722
