15

C       0.014889   -1.210609    0.033208
C       0.029751   -0.008658    0.021677
C       0.019316    1.412765   -0.047881
C      -0.734667    2.258441   -1.095930
C       0.443023    3.282964   -1.108088
C       1.171740    2.429612   -0.055133
N       0.352929    2.208695    1.128095
C       2.585843    2.228572    0.020313
N       3.733122    2.082124    0.032872
H       0.013567   -2.272524    0.059790
H      -0.847043    1.742170   -2.049925
H      -1.713233    2.619455   -0.767059
H       0.963192    3.307814   -2.066526
H       0.227288    4.307591   -0.792247
H      -0.303675    2.971475    1.291283
