22

C      -0.201002    1.334532   -0.197552
C      -0.172828   -0.175232    0.021638
O       0.396336   -0.766893   -1.132469
C       0.625626   -0.539187    1.288635
C       0.856006   -2.046612    1.484937
C       1.748614   -2.340636    2.692200
N      -0.398314   -2.798014    1.624713
C      -1.057659   -3.379174    0.600927
O      -0.746453   -3.310071   -0.578108
H       0.813519    1.708504   -0.370802
H      -0.804571    1.575801   -1.076285
H      -0.619686    1.855172    0.669738
H      -1.209426   -0.525460    0.152611
H       0.094382   -1.689835   -1.159183
H       1.611233   -0.060974    1.225202
H       0.122118   -0.124867    2.173106
H       1.333826   -2.431946    0.579903
H       1.938720   -3.413438    2.790449
H       2.709322   -1.829947    2.587236
H       1.287604   -1.985473    3.622304
H      -0.777198   -2.920199    2.551672
H      -1.940109   -3.953529    0.939476
