17

N      -0.089255    1.167062    0.198080
C      -0.039774   -0.080862    0.065686
O       1.091061   -0.876749    0.103946
C       0.517885   -2.182429   -0.085074
C      -0.712882   -2.154365    0.934256
C      -1.164391   -1.085579   -0.151953
N      -2.204615   -0.548269   -1.103742
C      -1.230225   -0.994898   -2.212280
C      -0.585006   -2.002685   -1.193894
H       0.845075    1.549553    0.356283
H       1.300346   -2.939063   -0.067594
H      -1.311986   -3.064415    0.930770
H      -0.485048   -1.823091    1.950417
H      -2.996316   -1.190783   -1.122363
H      -1.706684   -1.426182   -3.095196
H      -0.608040   -0.145282   -2.494123
H      -1.167200   -2.926999   -1.235701
