20

C       0.084604    1.510558    0.486307
C      -0.082242    0.020487    0.245483
O       0.839170   -0.665846    1.088741
C       0.803976   -2.077970    0.971247
C       1.964793   -2.642920    1.788088
C       1.356167   -2.705862    3.194083
O      -0.044389   -2.974528    2.983570
C      -0.404467   -2.646120    1.710630
N      -1.567404   -2.768269    1.230059
H       1.109209    1.826918    0.269957
H      -0.596624    2.074960   -0.157426
H      -0.138293    1.759840    1.527788
H      -1.108171   -0.304550    0.457792
H       0.129074   -0.231908   -0.806547
H       0.799843   -2.383449   -0.081765
H       2.216427   -3.647406    1.435296
H       2.850248   -2.008896    1.727151
H       1.757356   -3.505885    3.819724
H       1.456193   -1.751518    3.721771
H      -2.211118   -3.129280    1.937950
