13

O      -0.193947    1.234486   -0.200745
C      -0.150226   -0.139372    0.052590
C      -0.695186   -0.692511    1.329182
C      -1.533975   -0.788509    0.057740
O      -2.625643    0.052497   -0.101082
C      -1.665069   -2.114587   -0.596193
O      -0.850243   -3.000573   -0.485260
H       0.193765    1.702874    0.545494
H       0.648449   -0.678755   -0.450476
H      -0.262031   -1.614744    1.700081
H      -1.070992    0.006140    2.069258
H      -2.268360    0.914332   -0.361479
H      -2.582463   -2.218744   -1.213387
