16

C       0.282861    0.589636    0.703199
O       0.269484    0.887527   -0.684139
C       0.695506   -0.111760   -1.482783
C       1.152030   -1.385460   -1.256983
C       1.450117   -1.946540   -2.551613
C       1.158851   -0.983907   -3.495987
N       0.699971    0.129018   -2.831353
C       1.949038   -3.244372   -2.806669
C       2.374527   -4.354351   -3.005669
H      -0.371401   -0.261667    0.928368
H       1.299376    0.359637    1.045698
H      -0.084200    1.480345    1.214349
H       1.270136   -1.881223   -0.308949
H       1.241867   -1.006964   -4.569037
H       0.407321    0.996184   -3.246839
H       2.749251   -5.330447   -3.186903
