13

N      -0.406976   -0.584468    1.418546
C      -0.196438    0.216473    0.613073
C       0.092270    1.235924   -0.395623
C       1.413742    1.922516   -0.168896
C       2.330998    1.700967    0.837946
N       3.353246    2.559773    0.614253
N       3.172446    3.332364   -0.471761
C       1.994332    2.948310   -0.951031
H       0.065400    0.754510   -1.381451
H      -0.731716    1.960712   -0.390462
H       2.322359    1.013312    1.668531
H       4.193925    2.668903    1.155841
H       1.598802    3.417916   -1.840351
