23

C      -0.115004    1.622788    0.090872
C      -0.006091    0.108051    0.021910
C       1.072040   -0.527582   -0.902503
C       1.349454   -1.581835    0.198819
C       0.859394   -3.028907   -0.013181
O       2.198060   -3.548638    0.093122
C       2.725356   -2.243193    0.438755
C       3.905592   -1.850954   -0.426440
C       0.637920   -0.658208    1.212929
H       0.857458    2.075019    0.318076
H      -0.462642    2.041756   -0.860205
H      -0.818639    1.937491    0.869834
H      -0.987024   -0.324675   -0.205265
H       0.757632   -0.893847   -1.884029
H       1.923954    0.147336   -1.040742
H       0.204501   -3.414762    0.781358
H       0.407026   -3.256114   -0.987468
H       3.013686   -2.219338    1.501698
H       3.628857   -1.834412   -1.484745
H       4.281078   -0.860602   -0.145761
H       4.719644   -2.570975   -0.295954
H       1.356040   -0.028473    1.751688
H      -0.026146   -1.129085    1.943860
