17

C      -0.020793    1.532298    0.047729
C      -0.012351    0.031480    0.029328
C      -1.283793   -0.838053   -0.046554
C      -0.618832   -1.772184    0.999519
O      -1.031409   -2.678225    1.664416
C       0.635316   -0.944923    1.040190
C       1.201324   -0.758075   -0.380072
C       1.229263   -1.859817   -1.382418
O       2.110254   -1.985019   -2.195865
H       0.960686    1.933099    0.317646
H      -0.285564    1.932223   -0.937337
H      -0.754263    1.908780    0.768878
H      -2.149185   -0.345781    0.409164
H      -1.582071   -1.249368   -1.013652
H       1.275263   -0.770956    1.897123
H       2.119076   -0.175246   -0.391243
H       0.388277   -2.584108   -1.332536
