18

N       0.559190    0.146243   -0.974949
C      -0.093941    0.225696    0.215512
O       0.316368    0.827345    1.190655
C      -1.391856   -0.539144    0.253031
C      -2.494177   -0.129402    1.209209
C      -3.479335   -1.322340    1.178911
C      -2.618044   -2.563907    0.839588
C      -1.466909   -1.998089    0.034617
O      -1.867778   -1.082459   -0.996949
H       1.393926    0.694278   -1.099563
H       0.075308   -0.228264   -1.774459
H      -2.040683    0.014996    2.194346
H      -2.966436    0.815211    0.924476
H      -4.024339   -1.437403    2.118353
H      -4.216398   -1.166535    0.388196
H      -2.208159   -3.030896    1.743449
H      -3.175832   -3.333056    0.296701
H      -0.586908   -2.593879   -0.194189
