17

C      -0.140577    1.524975    0.055472
C      -0.022901    0.004970    0.043010
C       0.767476   -0.554785   -1.164484
C       2.098366   -0.405014   -0.391281
O       2.579776   -1.702625   -0.796505
C       1.159682   -2.053054   -0.866845
C       0.872115   -2.065036    0.648325
O       0.518672   -2.940702    1.382732
C       1.168672   -0.582333    0.885645
H       0.819650    2.011017   -0.146149
H      -0.851562    1.863035   -0.706283
H      -0.496795    1.880454    1.027366
H      -0.998236   -0.450244    0.247607
H       0.610032   -0.250714   -2.198382
H       2.829129    0.398360   -0.448291
H       0.927833   -2.913675   -1.489248
H       1.410174   -0.242269    1.888789
