15

O       0.025331    1.425219    0.009359
C      -0.011439    0.025982    0.001630
C      -1.436971   -0.486798    0.012796
N      -2.415570    0.372322    0.022215
C      -3.729407   -0.070596    0.032489
O      -4.706362    0.644073    0.040303
N      -3.906346   -1.479857    0.030597
C      -2.886005   -2.366690    0.020705
C      -1.608135   -1.909263    0.011579
H       0.947748    1.696850   -0.004552
H       0.482810   -0.403190   -0.888846
H       0.500678   -0.413360    0.876942
H      -4.868745   -1.785822    0.037517
H      -3.151879   -3.417953    0.020669
H      -0.766119   -2.587652    0.003718
