20

C       0.056472    1.566498    0.106362
C      -0.045142    0.039396   -0.035093
C       0.621967   -0.484850   -1.317353
C       0.000935    0.026350   -2.613043
O       0.629126   -0.664265   -3.683163
C       0.560450   -0.662491    1.200500
C      -0.234642   -0.403711    2.459031
O       0.208698    0.037031    3.487968
H       1.104740    1.887320    0.096837
H      -0.460452    2.084800   -0.705910
H      -0.382397    1.911088    1.048177
H      -1.111613   -0.230389   -0.076834
H       1.689357   -0.229612   -1.313631
H       0.564503   -1.579763   -1.338314
H      -1.086432   -0.160497   -2.601627
H       0.143837    1.113017   -2.709418
H       0.284879   -0.315124   -4.510283
H       0.550925   -1.749531    1.033849
H       1.597662   -0.354991    1.368126
H      -1.317901   -0.662072    2.369545
