17

C      -0.061292    1.391334    0.020224
N      -0.016777   -0.047901    0.021389
C      -1.179818   -0.899232    0.002925
C      -0.593985   -2.294793    0.012855
C      -1.459125   -3.511039   -0.000931
C       0.739544   -2.204058    0.034300
C       1.159698   -0.775370    0.040563
O       2.282393   -0.309263    0.058482
H       0.971709    1.744957    0.037503
H      -0.557661    1.781686   -0.877827
H      -0.587623    1.782118    0.900845
H      -1.829964   -0.729966    0.876061
H      -1.801432   -0.730650   -0.890894
H      -2.098489   -3.532377   -0.892148
H      -0.860382   -4.424680    0.011075
H      -2.130202   -3.529909    0.866691
H       1.458229   -3.011587    0.046172
