16

O      -0.263380    1.498678    0.052343
C      -0.157579    0.122941   -0.016811
C      -1.312801   -0.874121    0.077869
C      -0.821687   -1.997857   -0.748083
C       0.328915   -1.614926   -1.556870
C       0.829320   -0.455682   -1.047162
C       1.929759   -0.703418    0.004409
C       0.656235   -0.792428    0.932260
N      -0.437858   -1.865281    0.786595
H      -0.710306    1.730807    0.874112
H      -2.349300   -0.703670    0.348112
H      -1.427574   -2.880758   -0.914349
H       0.959743   -2.375712   -2.006848
H       2.559583   -1.581719   -0.139043
H       2.530842    0.157443    0.314547
H       0.768465   -0.575572    1.997254
