17

O       0.029190    1.330664    0.033487
N       0.025714   -0.047385    0.003847
C      -1.128110   -0.604475    0.046613
C      -1.125739   -2.112944   -0.016899
C      -2.165360   -2.581238   -1.040865
C      -3.516235   -1.995403   -0.662507
O      -3.491040   -0.566252   -0.546777
C      -2.458243    0.074820    0.093292
N      -2.638029    1.204823    0.635729
H       0.969088    1.529015   -0.052950
H      -0.116883   -2.453846   -0.257033
H      -1.387749   -2.523509    0.969049
H      -1.882504   -2.247872   -2.045763
H      -2.236765   -3.673821   -1.059672
H      -4.279619   -2.204505   -1.415879
H      -3.857966   -2.419557    0.292996
H      -3.624523    1.463704    0.550074
