13

C      -0.009400    1.511933    0.071313
C      -0.020527   -0.005706    0.053831
O      -0.043238   -0.680194    1.058189
C      -0.001243   -0.636566   -1.278004
C       0.022956   -0.144425   -2.524332
O       0.031948   -1.170519   -3.421314
C       0.012343   -2.350158   -2.691741
O       0.013595   -3.439495   -3.154804
O      -0.008116   -2.017940   -1.371057
H       0.890297    1.900156   -0.417949
H      -0.877932    1.914604   -0.460623
H      -0.031428    1.848320    1.107889
H       0.035935    0.857957   -2.916147
