17

N       0.001643    1.407892    0.075305
C      -0.029837    0.038303   -0.034630
N      -1.122547   -0.604430   -0.030592
C      -1.183674   -2.057439   -0.024548
C      -0.493186   -2.759337   -1.195905
O      -1.117812   -3.378382   -2.025236
C       1.025255   -2.659570   -1.246999
C       1.544685   -1.222971   -1.311539
O       1.253173   -0.449831   -0.142842
H       0.890501    1.805668    0.329446
H      -0.814829    1.828145    0.489797
H      -0.748879   -2.455004    0.907378
H      -2.234154   -2.354371   -0.055360
H       1.438095   -3.135182   -0.348100
H       1.375349   -3.211694   -2.123702
H       2.635631   -1.230745   -1.377646
H       1.151333   -0.707698   -2.196359
