21

C       0.185917    1.452335    0.016286
O      -0.297650    0.177020   -0.342910
C       0.550007   -0.508656   -1.223841
C       1.758787   -1.234656   -0.590326
O       1.183778   -2.524149   -0.871918
C       0.043667   -1.935950   -1.554212
C      -1.275451   -2.370167   -0.997729
C      -2.492581   -2.374119   -1.891614
C      -1.872736   -3.676456   -1.461255
H       1.146375    1.395911    0.550492
H       0.320338    2.096229   -0.866984
H      -0.556234    1.906077    0.676994
H       0.786505    0.117728   -2.095778
H       2.722193   -1.091006   -1.096302
H       1.882235   -1.060944    0.486035
H       0.087772   -2.162594   -2.629794
H      -1.433667   -2.095773    0.038682
H      -3.439834   -2.078036   -1.455945
H      -2.366578   -2.067928   -2.925210
H      -1.324548   -4.250328   -2.201060
H      -2.394607   -4.281763   -0.728833
