15

O      -0.702351    0.773659   -0.535714
C       0.195843    0.815752    0.274008
C       1.310105    1.725336    0.206150
C       2.255900    2.478238    0.172548
C       3.377476    3.382615    0.118322
C       4.104828    3.693271   -1.237380
C       2.873685    4.482016   -1.736951
C       3.187024    4.888884   -0.279665
O       4.622433    4.931065   -0.621645
H       0.218956    0.134358    1.148448
H       4.077222    3.256379    0.946523
H       4.806439    3.058183   -1.777189
H       3.097247    5.247921   -2.478864
H       1.951973    3.934314   -1.936511
H       2.783337    5.693611    0.333883
