20

C       0.187194    1.228510   -0.433134
C       0.033168   -0.235324   -0.014167
C      -1.425723   -0.648660    0.154594
N      -2.229634   -0.702549   -1.109205
C      -2.662525   -2.115252   -0.882022
C      -2.317291   -3.029700   -2.058621
O      -1.034277   -2.730590   -2.561046
C      -1.714396   -2.149072    0.333134
O      -1.345145   -2.996110    1.088163
H       1.239901    1.489020   -0.576537
H      -0.337443    1.417498   -1.375125
H      -0.224908    1.905127    0.324185
H       0.491973   -0.894176   -0.760212
H       0.549669   -0.422875    0.934636
H      -1.903105   -0.056333    0.949703
H      -2.989572   -0.034501   -1.147989
H      -3.712177   -2.242231   -0.582947
H      -2.311925   -4.070777   -1.718513
H      -3.090942   -2.932607   -2.838326
H      -1.017084   -1.764274   -2.627030
