15

C      -0.107755    1.463882    0.168227
C      -0.018629   -0.022975    0.084052
N      -0.144896   -0.659589   -1.055411
O      -0.008045   -2.015768   -0.767119
C       0.213492   -2.168335    0.548455
C       0.209375   -0.948187    1.146980
O       0.413829   -0.584406    2.444407
C      -0.163668   -1.346518    3.417606
N       0.171791   -1.167303    4.615095
H       0.824070    1.886727    0.556343
H      -0.303258    1.881824   -0.820552
H      -0.909476    1.767086    0.848883
H       0.362827   -3.175546    0.902209
H      -0.902801   -2.050853    3.017179
H      -0.364937   -1.779018    5.226460
