17

O       0.061192    1.413114    0.044897
C       0.001172    0.026717   -0.002968
C       0.606163   -0.844775    1.111278
C      -0.597139   -1.826049    0.994825
C      -1.377967   -0.851484    0.065272
O      -2.618976   -0.467767    0.541222
C      -1.208077   -1.062282   -1.421815
O      -2.027270   -1.248044   -2.281944
C       0.231672   -0.514478   -1.439373
H      -0.356664    1.702516    0.863808
H       1.607814   -1.243220    0.928733
H       0.609531   -0.325315    2.074567
H      -0.375282   -2.804853    0.563888
H      -1.147060   -1.972020    1.925726
H      -3.172751   -0.262887   -0.223343
H       0.361827    0.279464   -2.178051
H       1.026861   -1.255071   -1.554062
