16

C      -0.059157    1.561435   -0.005088
C       0.037802    0.034316    0.006517
N       0.811483   -0.477549   -1.137021
C       1.765693   -1.170546   -0.669386
N       1.821260   -1.264832    0.738730
C       2.786306   -1.966019    1.437936
O       3.682304   -2.579753    0.913852
C       0.732778   -0.507868    1.256154
N       0.373445   -0.289112    2.447482
H       0.937619    2.011564    0.011430
H      -0.574402    1.895955   -0.908201
H      -0.609427    1.899461    0.875931
H      -0.973768   -0.386074   -0.047782
H       2.524668   -1.686934   -1.243427
H       2.645680   -1.903292    2.531159
H       0.965492   -0.734164    3.148274
