14

C       0.652897    0.854277    0.338158
C      -0.578064    0.076540   -0.064781
O      -1.629432    0.152924    0.523462
C      -0.459658   -0.834449   -1.295145
C       0.438685   -2.053958   -1.094054
O       1.327839   -2.113335   -0.272997
C       0.157652   -3.159965   -1.990021
C      -0.087786   -4.066048   -2.743523
H       0.996676    1.479079   -0.494621
H       0.430029    1.480007    1.202909
H       1.459018    0.150752    0.567571
H      -1.460692   -1.160870   -1.586486
H      -0.035330   -0.272810   -2.139570
H      -0.292576   -4.876663   -3.400558
