20

C      -0.127411    1.439134   -0.206819
C      -0.012639   -0.028138    0.094591
N       0.088709   -0.463984    1.280642
O      -0.037194   -0.741893   -1.068180
C       0.061598   -2.160354   -0.982740
C       0.010496   -2.699706   -2.403528
C       0.107269   -4.218006   -2.454013
C       0.065004   -4.850309   -3.832005
O       0.212091   -4.877937   -1.444630
H       0.696528    1.758845   -0.852486
H      -1.058316    1.643659   -0.744936
H      -0.107594    2.005193    0.723150
H       0.158184   -1.479399    1.328319
H       0.998572   -2.451746   -0.493687
H      -0.763062   -2.568004   -0.386278
H      -0.917044   -2.382819   -2.897309
H       0.822150   -2.268446   -3.003359
H       0.885584   -4.470852   -4.451237
H       0.141660   -5.934463   -3.743995
H      -0.866738   -4.586023   -4.344627
