17

C       0.051879    1.474762   -0.236252
C       1.314587    0.725217   -0.017218
C       2.072550    0.848819    1.316979
N       1.199444    1.067556    2.485519
C       0.162049    0.368752    2.371400
O      -1.014454    0.405937    3.074595
C      -1.712731   -0.233421    1.942267
C      -0.348894   -0.488372    1.252315
N       0.015945    0.010533   -0.070636
H      -0.298863    2.108345    0.574389
H      -0.220014    1.814364   -1.230671
H       1.959954    0.523967   -0.869659
H       2.690637   -0.049380    1.458607
H       2.766892    1.692571    1.248047
H      -2.277429   -1.108072    2.268534
H      -2.360658    0.489012    1.440662
H      -0.048068   -1.537896    1.314713
