15

O       0.038207   -0.015322   -0.047560
C       0.000412    1.178390   -0.017813
C      -1.133376    2.213101    0.105612
C      -1.629074    2.853661   -1.230373
O      -0.713396    3.977717   -1.101557
C      -0.092804    3.357788   -0.002896
C       0.633337    3.952076    1.183488
O       1.438677    2.741054    1.263538
C       1.064387    2.304501   -0.075293
H      -1.876996    2.107842    0.894670
H      -1.445150    2.277719   -2.142969
H      -2.668878    3.188748   -1.206180
H       1.254358    4.824207    0.941290
H       0.062498    4.139658    2.097981
H       1.907114    2.272774   -0.770192
