15

N      -0.299707    1.227555   -0.080988
C      -0.066480   -0.001818   -0.028292
C       1.136652   -0.950035    0.112193
O       1.974917   -0.765624    1.240047
C       3.316980   -0.784020    1.057082
O       4.087949   -0.646616    1.953799
C       0.108754   -2.070330    0.153259
C      -0.950124   -1.799401    1.138013
N      -1.025337   -1.081338   -0.165801
H       0.557764    1.769054    0.042828
H       1.729847   -0.970400   -0.810545
H       3.599885   -0.936012   -0.003124
H       0.190861   -3.004944   -0.387766
H      -1.732454   -2.542774    1.245452
H      -0.729856   -1.227643    2.034699
