17

C       0.008939    1.506677    0.081840
C       0.029564   -0.007678   -0.045296
C       0.770222   -0.518644   -1.274832
C       0.736694   -2.043447   -1.271358
N       1.059889   -2.521315    0.062343
C       1.071272   -1.800969    1.227704
O       1.432963   -2.258601    2.283565
O       0.663401   -0.505699    1.149531
H       1.028135    1.904636    0.088916
H      -0.536059    1.951833   -0.755973
H      -0.480462    1.801676    1.013220
H      -1.002630   -0.389012   -0.062019
H       0.305761   -0.133830   -2.187314
H       1.804285   -0.157360   -1.241372
H      -0.259208   -2.394829   -1.580169
H       1.458193   -2.450682   -1.988503
H       1.358335   -3.474560    0.187544
