20

C      -0.025188    1.398197   -0.120100
N      -0.041940   -0.053667   -0.189645
C      -1.110759   -0.674098    0.054579
O      -2.317530   -0.080474    0.352972
C      -3.220300   -1.035977    0.934842
C      -2.653798   -2.402935    0.608116
C      -2.367842   -2.655955   -0.843403
C      -1.257818   -2.159329    0.069216
C      -0.040165   -2.998217    0.357550
H       0.934986    1.723300    0.293164
H      -0.097038    1.819480   -1.130909
H      -0.838282    1.822430    0.480983
H      -3.268209   -0.870673    2.018616
H      -4.212370   -0.853169    0.509041
H      -2.868077   -3.229377    1.274870
H      -2.292836   -3.689309   -1.164002
H      -2.781851   -1.979617   -1.585092
H       0.733109   -2.806757   -0.391512
H       0.384565   -2.756365    1.336818
H      -0.285656   -4.064215    0.341382
