20

C      -0.035008    1.541952   -0.086860
C      -0.078857    0.027499    0.139829
C      -1.477833   -0.557627    0.034260
C      -2.149623   -0.597927   -1.363246
O      -2.411758   -2.012524   -1.236991
C      -1.613063   -2.099100   -0.036730
O      -2.245588    0.068877    1.064247
C      -3.551923   -0.249262    1.203378
N      -4.230241    0.317178    2.105478
H       0.988252    1.916383    0.005339
H      -0.395112    1.805850   -1.087574
H      -0.658955    2.060626    0.644207
H       0.559025   -0.484661   -0.589349
H       0.315963   -0.214186    1.133867
H      -3.065564   -0.009511   -1.482204
H      -1.468157   -0.379942   -2.195211
H      -0.666434   -2.626115   -0.209793
H      -2.148080   -2.575938    0.791597
H      -3.913805   -1.001239    0.493440
H      -5.187131   -0.030165    2.083221
