20

C       0.278593    1.515148    0.216163
C      -0.190464    0.102622   -0.150590
C       0.550413   -0.475999   -1.338740
C       1.883388   -1.172191   -1.148446
C       0.666401   -1.956935   -1.534591
C      -0.028882   -3.088749   -0.782166
O      -0.239600   -3.807396   -2.017707
C       0.419095   -2.781908   -2.793529
H       1.344409    1.522869    0.466802
H       0.130385    2.208718   -0.618785
H      -0.274282    1.906059    1.075958
H      -0.061384   -0.561819    0.713670
H      -1.267798    0.117652   -0.362622
H       0.454367    0.107023   -2.253891
H       2.660443   -1.029352   -1.893173
H       2.254917   -1.283308   -0.133020
H       0.597339   -3.655406   -0.080060
H      -0.977200   -2.834088   -0.290061
H      -0.252853   -2.335695   -3.539400
H       1.315327   -3.163741   -3.301295
