16

C       0.172944    1.390573    0.000310
N       0.002367   -0.047459   -0.013893
C       0.430922   -0.925272   -0.952612
C       0.095216   -2.188042   -0.505285
C       0.333567   -3.513031   -1.181306
C       1.043673   -3.380090   -2.453433
N       1.603927   -3.256083   -3.456168
C      -0.539091   -1.956001    0.734327
N      -0.590605   -0.659906    1.027872
H       0.987926    1.681603    0.670370
H       0.399033    1.733360   -1.010744
H      -0.751756    1.856514    0.344764
H       0.930647   -0.603589   -1.852639
H       0.917101   -4.182384   -0.536429
H      -0.614012   -4.031587   -1.376003
H      -0.963569   -2.677904    1.417555
