14

O      -0.073924   -0.027937    0.006013
C       0.045214    1.162590    0.009600
O      -1.079927    1.997672    0.028738
C      -0.722449    3.386168    0.029774
C       0.768284    3.337864    0.008838
C       1.211983    2.044042   -0.002888
C       2.636239    2.065162   -0.022626
C       2.990814    3.392479   -0.021663
N       1.836858    4.170937   -0.002358
H      -1.165855    3.867977   -0.850773
H      -1.141121    3.860289    0.926456
H       3.312079    1.225423   -0.035677
H       3.961202    3.862719   -0.033045
H       1.821375    5.176533    0.002150
