23

C      -0.202094    1.514388   -0.024252
C       0.112622    0.016765   -0.050719
C       0.787008   -0.501649    1.230908
C      -0.090706   -0.519226    2.535230
C       0.442721   -1.941394    2.854876
C      -0.518347   -2.977865    3.414231
C       0.898466   -2.061687    1.376077
C       2.073921    0.145317    1.453481
C       3.140140    0.674276    1.632023
H       0.711121    2.103943    0.097355
H      -0.689017    1.827519   -0.952771
H      -0.873648    1.763514    0.804573
H      -0.812777   -0.554623   -0.195084
H       0.760108   -0.213208   -0.905849
H       0.083487    0.272381    3.266041
H      -1.154451   -0.537752    2.273894
H       1.323237   -1.861802    3.500689
H      -1.409190   -3.070662    2.782073
H      -0.047988   -3.965874    3.473600
H      -0.852535   -2.708563    4.422569
H       0.140450   -2.554733    0.757774
H       1.872488   -2.509888    1.171329
H       4.080213    1.141264    1.791750
