19

C       0.014894    1.558956    0.055479
C      -0.048106    0.061552    0.063081
C      -1.328652   -0.794464   -0.002177
C      -0.654161   -1.828092    0.962208
C      -0.550883   -3.280254    0.535385
O      -1.870601   -3.799728    0.451509
C       0.619821   -0.965988    0.940399
N       1.096769   -0.705080   -0.417990
H       1.030909    1.898908    0.272417
H      -0.270264    1.957409   -0.925826
H      -0.666079    1.986878    0.799079
H      -2.205587   -0.319763    0.443687
H      -1.601077   -1.157432   -0.999190
H      -1.133689   -1.787759    1.944974
H      -0.035758   -3.358522   -0.436463
H       0.055393   -3.837980    1.268144
H      -1.817550   -4.713174    0.155628
H       1.327218   -0.844079    1.754144
H       0.842823   -1.434266   -1.081871
