17

C      -0.649744    1.159334    0.095687
C       0.222248   -0.092334    0.041718
C       1.111510   -0.265512   -1.197089
C       2.307166   -1.049187   -0.636190
O       2.392518   -0.722463    0.759757
C       1.221869   -0.159185    1.197135
O       1.076292    0.196378    2.328070
C       2.175144   -2.565092   -0.775965
O       1.649645   -3.104426   -1.713212
H      -0.048276    2.061453   -0.055594
H      -1.421776    1.130043   -0.678016
H      -1.133384    1.237940    1.072280
H      -0.416700   -0.979742    0.156680
H       0.641548   -0.814786   -2.014100
H       1.438907    0.708594   -1.572143
H       3.259746   -0.761986   -1.097812
H       2.622175   -3.133762    0.067859
