16

O      -0.122886    1.246274    0.049088
C       0.061218   -0.071230    0.004300
N       1.180366   -0.726798   -0.021739
C       0.735601   -2.049590   -0.083270
C      -0.603071   -2.088913   -0.088765
C      -1.232586   -3.431474   -0.070776
C       0.056281   -4.309939   -0.304448
C       1.334568   -3.418791   -0.075823
O      -1.081193   -0.794724   -0.025738
H       0.756737    1.645081    0.059589
H      -1.717856   -3.659546    0.887390
H      -1.980745   -3.596442   -0.853694
H       0.057447   -5.189608    0.342658
H       0.052470   -4.670882   -1.335897
H       2.082771   -3.581415   -0.858482
H       1.823937   -3.644767    0.879866
