19

C      -0.059059    1.524115   -0.028453
C      -0.002644    0.007037   -0.008924
C      -1.250291   -0.642843   -0.580239
C       1.315855   -0.679250   -0.235461
C       0.708447   -0.691313    1.166232
C       1.376673    0.087228    2.293073
C       0.150152   -1.944362    1.614797
N      -0.291478   -2.942468    2.000619
H       0.867405    1.991325    0.310532
H      -0.244107    1.871045   -1.051194
H      -0.876685    1.896512    0.598632
H      -1.383752   -0.342529   -1.625462
H      -1.201469   -1.733211   -0.544054
H      -2.142624   -0.331235   -0.026310
H       1.328112   -1.611414   -0.789195
H       2.206092   -0.070749   -0.359161
H       1.876534    0.980897    1.916474
H       0.647058    0.394581    3.048517
H       2.130070   -0.533867    2.786556
