13

O      -0.212584    1.428249    0.047301
C      -0.082516    0.048690    0.000853
C      -1.354572   -0.793734    0.041700
N      -2.566096   -0.143364   -0.341460
C      -2.460508    0.446329   -1.587420
O      -3.220074    1.193455   -2.129352
O      -1.278648    0.015453   -2.166540
C      -0.532887   -0.716877   -1.223188
H       0.124123    1.798614   -0.776676
H       0.774772   -0.368292    0.528567
H      -1.431812   -1.678669    0.661762
H      -3.152595    0.327691    0.329041
H       0.034228   -1.530010   -1.657543
