16

N       0.049397    1.382756    0.132169
C      -0.019661    0.007087    0.054919
C      -1.162135   -0.703402    0.150377
C      -1.190260   -2.153731    0.047704
N      -2.283551   -2.802067   -0.036630
O       0.019074   -2.811551   -0.014194
C       1.154648   -2.120933    0.499318
C       1.289756   -0.722495   -0.094698
H       0.854177    1.818218   -0.291538
H      -0.809187    1.887407   -0.032447
H      -2.130251   -0.225741    0.243763
H      -2.081988   -3.801546   -0.100164
H       1.079070   -2.049532    1.593147
H       2.017642   -2.744553    0.253752
H       1.568070   -0.780766   -1.155481
H       2.090356   -0.181685    0.423714
