13

N       0.097470   -1.137370    0.058810
C       0.043004    0.016789    0.036896
C       0.001832    1.456497    0.045494
C      -1.067467    2.073788   -0.695135
N      -1.905740    2.606750   -1.286705
C       0.450041    2.256878    1.292861
C       1.623323    1.527680    1.939580
O       2.353445    1.547713    0.671159
C       1.316384    2.281869    0.078973
H      -0.208963    2.990089    1.734894
H       2.143391    2.139351    2.681148
H       1.461065    0.512980    2.310888
H       1.536042    3.012925   -0.689186
