23

C      -0.117010    1.570291   -0.015371
C       0.029816    0.044867   -0.022450
C       0.660898   -0.460029   -1.333448
C       1.069984   -1.907956   -1.275549
C       1.271215   -2.580421   -0.141499
C       1.149281   -1.982502    1.226650
C       2.528371   -1.598385    1.864302
C       2.304760   -0.137038    1.393694
C       0.793851   -0.465076    1.199880
H       0.863277    2.060134   -0.040149
H      -0.683835    1.919541   -0.885286
H      -0.638027    1.915173    0.884296
H      -0.976300   -0.395677    0.035488
H      -0.042422   -0.303341   -2.161434
H       1.537483    0.157081   -1.586265
H       1.216580   -2.412195   -2.228335
H       1.578075   -3.624352   -0.185249
H       0.517079   -2.614896    1.860017
H       2.507864   -1.689517    2.954090
H       3.409513   -2.121443    1.484956
H       2.556757    0.660278    2.096770
H       2.811242    0.067002    0.446275
H       0.243656   -0.194991    2.108145
