19

C      -0.513381    1.207379   -0.456787
O       0.453045    1.770585    0.427984
C       0.444605    0.346337    0.251333
C       0.033642   -0.467000    1.447423
C      -0.248738   -1.965468    1.322666
C       1.074127   -2.722461    1.543287
C       2.167339   -1.687748    1.794635
C       1.074616   -0.873094    2.541045
C       0.267541   -2.225595    2.717339
H      -1.546449    1.255596   -0.112969
H      -0.367823    1.426459   -1.513990
H       1.291833   -0.027001   -0.324321
H      -0.813666    0.028721    1.933491
H      -1.083662   -2.445744    0.827774
H       1.182683   -3.744181    1.202173
H       2.912142   -2.071814    2.497185
H       2.680480   -1.220805    0.946506
H       1.341209   -0.168733    3.325500
H      -0.171941   -2.727143    3.566597
