15

N       0.115387    1.243043    0.052210
C      -0.344115   -0.005177    0.407690
O      -0.560008   -0.324184    1.561192
N      -0.489217   -0.859216   -0.679231
C      -0.908788   -2.190465   -0.705758
N      -0.865462   -2.773336   -1.832966
C      -1.381903   -2.782839    0.620207
C      -1.831854   -4.161464    0.462579
N      -2.185132   -5.253195    0.329256
H       0.072179    1.920536    0.796728
H      -0.046175    1.601623   -0.875168
H      -0.176176   -0.551977   -1.589660
H      -1.196886   -3.734398   -1.771704
H      -0.579721   -2.728542    1.360960
H      -2.187422   -2.172262    1.038437
