13

O      -0.817720    1.218180   -0.096413
C       0.293109    0.984335    0.312296
C       1.456081    1.924696    0.233365
C       1.360811    3.351646   -0.202683
N       0.093993    3.980776    0.188227
C       0.312355    3.693558    1.553331
O      -0.352814    3.882346    2.527669
C       1.675959    3.072886    1.253610
H       0.531749    0.009890    0.791695
H       2.395930    1.421951    0.008248
H       1.997412    3.804132   -0.951558
H      -0.778721    3.713397   -0.253967
H       2.599565    3.164110    1.807152
