24

C       0.184345    1.371630    0.193198
C       0.014642   -0.127560   -0.056447
C       0.927199   -0.629557   -1.176014
O       2.022643   -0.139934   -1.391580
N       0.429519   -1.681035   -1.893324
C       1.166479   -2.341853   -2.956820
C       1.553269   -3.798279   -2.639164
C       2.198885   -4.442044   -3.872739
C       2.469682   -3.890974   -1.413972
H       1.240639    1.606455    0.337992
H      -0.170984    1.956294   -0.660811
H      -0.376122    1.685611    1.078167
H       0.284403   -0.687609    0.848909
H      -1.031492   -0.376120   -0.271762
H      -0.486868   -2.027530   -1.660331
H       0.572812   -2.315600   -3.880200
H       2.063401   -1.738249   -3.120866
H       0.625931   -4.348412   -2.416934
H       3.126486   -3.923868   -4.142896
H       2.448118   -5.490833   -3.684234
H       1.532597   -4.406197   -4.741482
H       2.706355   -4.934146   -1.180668
H       3.412566   -3.361885   -1.591813
H       2.002236   -3.446386   -0.530898
