21

C      -0.103679    1.533169    0.089466
C       0.083791    0.024454    0.011904
C       1.290182   -0.625174   -0.706408
C       2.204895   -0.177170    0.525358
C       0.884034   -0.760738    1.119548
C       0.085242   -1.627767    2.115452
C      -0.207512   -2.597560    0.873328
O      -1.475061   -2.501837    0.266166
C       1.015666   -1.923628    0.130749
H       0.805208    2.084252    0.343229
H      -0.464115    1.918678   -0.871280
H      -0.861372    1.784160    0.840736
H      -0.864777   -0.445306   -0.244733
H       1.563071   -0.536760   -1.763265
H       3.104727   -0.775287    0.692426
H       2.426064    0.887699    0.621456
H       0.695410   -2.134543    2.869101
H      -0.782760   -1.167900    2.599545
H       0.023686   -3.647259    1.101096
H      -2.125362   -2.860445    0.879345
H       1.896180   -2.559349    0.262527
