18

N       0.307906    1.392942    0.163498
C      -0.145877    0.009469   -0.004148
C      -1.615822   -0.040794    0.050055
N      -2.769485   -0.099207    0.055526
C       0.350190   -0.665904   -1.282953
N       1.765134   -1.053418   -1.255663
C       0.734888   -2.097364   -1.389852
C       0.605560   -3.108802   -0.279893
O       1.429680   -4.210700   -0.627202
H       1.323599    1.388529    0.112041
H      -0.024029    1.961548   -0.611403
H       0.233578   -0.555777    0.853435
H      -0.040134   -0.201453   -2.188331
H       2.216190   -0.867734   -2.146624
H       0.608051   -2.545673   -2.373914
H       0.918609   -2.659872    0.673288
H      -0.449941   -3.410456   -0.186171
H       1.338449   -4.881495    0.055882
