18

C      -0.019424    1.521568   -0.039292
C       1.402944    2.109857    0.023141
C       2.101504    1.799029    1.363857
C       1.888425    0.357971    1.705529
N       2.551149   -0.355421    2.617836
N       1.972531   -1.549140    2.534484
N       0.989697   -1.681494    1.649483
C       0.917830   -0.465684    1.104429
C      -0.013277   -0.020670    0.021003
H      -0.606529    1.914109    0.801227
H      -0.522498    1.851413   -0.953966
H       1.998814    1.694533   -0.800079
H       1.368369    3.193225   -0.130587
H       3.169390    2.034851    1.313937
H       1.681419    2.434616    2.154934
H       2.265191   -2.317660    3.114998
H      -1.022358   -0.410784    0.188534
H       0.318531   -0.426529   -0.944095
