23

C      -0.116426    1.487580    0.010832
C      -0.049961    0.033920   -0.015393
C      -0.003390   -1.168185   -0.036486
C       0.083649   -2.623542   -0.064197
O      -1.221547   -3.170105    0.020315
C      -1.346893   -4.603341    0.007959
C      -0.638696   -5.234419    1.217927
C      -2.859972   -4.819931    0.112150
C      -0.817994   -5.196957   -1.307986
H       0.432471    1.898664    0.865311
H       0.308269    1.924817   -0.899591
H      -1.154075    1.830396    0.088933
H       0.589543   -2.938421   -0.990172
H       0.714522   -2.964489    0.771423
H      -0.968690   -4.754097    2.143856
H      -0.876241   -6.300912    1.280420
H       0.450034   -5.148171    1.151819
H      -3.367775   -4.345985   -0.732297
H      -3.102012   -5.886766    0.113504
H      -3.242434   -4.372181    1.033465
H       0.269338   -5.110410   -1.393784
H      -1.064208   -6.261640   -1.367744
H      -1.274444   -4.690221   -2.163451
