23

C      -0.103472    1.573588   -0.332429
C      -0.008574    0.136796    0.195722
C      -1.351799   -0.566508    0.174221
C      -1.827451   -1.308970   -1.046071
O      -0.953898   -1.342177   -2.138319
C      -1.496468   -2.083278    0.217902
C      -0.271872   -2.978411    0.245838
C      -2.677408   -2.624866    0.989902
O      -3.082939   -3.853121    0.391812
H       0.868078    2.075893   -0.287237
H      -0.440742    1.580306   -1.373409
H      -0.813306    2.167973    0.254120
H       0.712723   -0.418310   -0.408248
H       0.379008    0.145537    1.222784
H      -2.130132   -0.016972    0.702071
H      -2.880417   -1.226416   -1.316852
H      -1.055877   -2.196384   -2.571530
H       0.449277   -2.701867   -0.525199
H       0.234047   -2.930546    1.217182
H      -0.574589   -4.015777    0.076267
H      -2.395684   -2.777000    2.044986
H      -3.500821   -1.893063    0.974035
H      -3.727983   -4.269882    0.970471
