21

C       0.040371    1.520667    0.083024
C      -0.015388    0.021320    0.005129
C       0.808574   -0.710014   -1.081319
C       0.589766   -2.171672   -0.582128
C      -0.285620   -1.830438    0.634462
O       0.409854   -0.688535    1.219200
C      -1.328743   -0.817414    0.068070
C      -2.359697   -0.345056    1.079922
O      -1.908568   -1.075509   -1.191916
H       1.073820    1.857259    0.214808
H      -0.342739    1.957619   -0.844730
H      -0.552783    1.902689    0.918253
H       0.420829   -0.537144   -2.086811
H       1.854891   -0.398267   -1.039676
H       0.067985   -2.796594   -1.309519
H       1.516187   -2.663903   -0.279564
H      -0.537399   -2.610088    1.355149
H      -1.892022   -0.132753    2.042304
H      -2.867439    0.556853    0.722557
H      -3.120791   -1.120416    1.237450
H      -2.787710   -1.441731   -1.055314
