15

C       0.029393    1.687637   -0.224245
C       0.017882    0.170386   -0.055904
C       1.181769   -0.608918   -0.743977
O       1.591081   -1.180692    0.505700
C       0.604393   -0.423216    1.241406
C      -1.331950   -0.391830   -0.446048
O      -2.016112   -1.107807    0.237830
H       1.030766    2.086950   -0.038516
H      -0.264521    1.976010   -1.240052
H      -0.663506    2.168956    0.474124
H       0.895502   -1.372474   -1.479022
H       1.952125    0.039000   -1.184131
H       1.067852    0.309741    1.913217
H      -0.079796   -1.066907    1.801961
H      -1.662346   -0.089400   -1.468251
