19

C       0.013394    1.505348   -0.040466
C       0.034385    0.012664    0.025450
C       0.220774   -0.866307   -0.954110
C       0.165374   -2.266608   -0.421120
O      -0.166173   -2.120414    0.960798
C      -0.150588   -0.746502    1.326137
C       0.952539   -0.463293    2.337768
C       1.593847   -1.537304    3.101586
O       2.256779   -0.918483    1.991836
H       0.818487    1.943929    0.561489
H       0.132379    1.858823   -1.067610
H      -0.929263    1.907946    0.351448
H       0.401415   -0.636046   -1.996966
H      -0.604029   -2.882311   -0.910203
H       1.126219   -2.793346   -0.525952
H      -1.110322   -0.491651    1.809051
H       0.918460    0.537045    2.775534
H       2.022011   -1.321437    4.079526
H       1.271689   -2.560185    2.928867
