15

C      -0.992062    0.347925    0.360882
C       0.437553    0.225187   -0.102753
O       1.380526    0.705459    0.479405
C       0.691570   -0.522733   -1.426914
C       1.962183   -1.388588   -1.408736
O       1.446839   -2.719610   -1.306636
C       0.118898   -2.733487   -1.567593
O      -0.557063   -3.706418   -1.644589
O      -0.345318   -1.457615   -1.727311
H      -1.622679    0.748414   -0.440173
H      -1.394459   -0.642449    0.598060
H      -1.037016    0.991196    1.239744
H       0.715807    0.230376   -2.222107
H       2.546604   -1.302950   -2.328855
H       2.591537   -1.167420   -0.546428
