17

C      -0.247058    1.495057    0.040079
C       0.015004    0.016472   -0.027815
C      -0.020969   -0.691646   -1.167211
C       0.179066   -2.174847   -1.282712
C       0.771420   -2.811490   -0.048541
O       1.982546   -2.241362    0.424943
C       0.801415   -2.064240    1.224927
C       0.251484   -0.665354    1.270631
O       0.004018   -0.137595    2.338377
H       0.622925    2.027704    0.439449
H      -0.482930    1.902072   -0.946075
H      -1.075511    1.705706    0.723156
H      -0.236359   -0.172540   -2.099400
H      -0.781743   -2.658708   -1.511721
H       0.825789   -2.393327   -2.143715
H       0.738600   -3.899935   -0.002749
H       0.803971   -2.580862    2.182126
