20

C      -0.014180    1.374166   -0.053268
O       0.014269   -0.031396   -0.147142
C      -1.265441   -0.620994    0.006483
C      -1.064843   -2.103806   -0.022229
C      -1.246600   -2.959547   -1.210247
N      -2.203133   -3.110189   -0.095104
C      -1.469171   -3.947794    0.926912
C      -0.360315   -2.885562    1.087384
O       0.946833   -3.352525    0.849366
H       1.011419    1.731381   -0.173372
H      -0.641184    1.822266   -0.839738
H      -0.397446    1.710065    0.923189
H      -1.713265   -0.310525    0.966490
H      -1.952537   -0.300759   -0.793384
H      -1.688038   -2.498069   -2.088297
H      -0.538155   -3.758944   -1.412055
H      -2.086413   -4.094659    1.814504
H      -1.134442   -4.916007    0.543703
H      -0.427691   -2.358595    2.049478
H       1.507679   -2.579645    0.716336
