17

O       0.136669    1.197522   -0.420869
C      -0.021417   -0.189636   -0.163929
C      -1.483205   -0.439954    0.202893
C      -2.425017   -0.100173   -0.982007
N      -2.589791   -1.385280   -1.639118
C      -2.297868   -2.476712   -0.866307
O      -2.455752   -3.636790   -1.177258
C      -1.748694   -1.934393    0.459615
H       1.032898    1.348097   -0.734457
H       0.246170   -0.793734   -1.045789
H       0.620454   -0.516427    0.668954
H      -1.722383    0.182806    1.068305
H      -3.384448    0.300095   -0.625891
H      -1.973419    0.643664   -1.643483
H      -3.070220   -1.503444   -2.516833
H      -0.864070   -2.500428    0.762405
H      -2.510739   -2.091301    1.230350
