18

C       0.122141    1.574338   -0.064632
C       0.013372    0.054156    0.054403
O       0.613506   -0.552502   -1.076661
C       1.432689   -1.658606   -0.680879
C       1.562538   -1.536604    0.815445
C       2.426327   -2.373997    1.605101
O       3.130527   -3.261505    1.157482
C       0.734769   -0.548595    1.244519
N       0.437567   -0.130759    2.503217
H       1.169695    1.887780   -0.050003
H      -0.321950    1.894001   -1.010641
H      -0.417580    2.082619    0.742737
H      -1.056004   -0.221297    0.114650
H       0.963447   -2.608052   -0.980522
H       2.394984   -1.591191   -1.201956
H       2.428305   -2.160163    2.702099
H       1.007365   -0.444893    3.271856
H       0.031200    0.782660    2.620413
