18

C      -0.543205    1.425174    0.011709
C       0.170234    0.087778    0.032937
C       1.036440   -0.226774   -1.241268
C       2.306028   -0.723117   -0.607257
C       2.201485   -0.493745    0.729358
N       3.339155   -0.848660    1.375744
C       4.224265   -1.330965    0.407519
C       3.610697   -1.258070   -0.824058
O       1.065083    0.060148    1.205641
H       0.173969    2.239621   -0.129150
H      -1.263039    1.452302   -0.812866
H      -1.083980    1.595896    0.946758
H      -0.548254   -0.724538    0.194378
H       0.521049   -0.955121   -1.876814
H       1.181002    0.679439   -1.846437
H       3.511265   -0.795653    2.363662
H       5.197672   -1.692289    0.694158
H       4.057461   -1.563149   -1.758184
