17

N      -0.524394   -0.908092   -0.970223
C      -0.281362    0.110663   -0.480772
C       0.028494    1.396400    0.144926
C      -0.339486    1.439419    1.658196
C       0.596384    2.511320    2.257560
C       1.850123    2.468438    1.395181
C       2.437391    1.115987    1.075362
C       1.509071    1.780934    0.091473
H      -0.543790    2.165607   -0.388478
H      -1.398043    1.659473    1.809905
H      -0.150672    0.461503    2.107639
H       0.139037    3.504686    2.180249
H       0.792880    2.328040    3.318980
H       2.513081    3.326226    1.407287
H       3.486408    1.083416    0.803992
H       2.100558    0.239958    1.620081
H       1.904736    2.118566   -0.858851
