25

C      -0.112506    1.534255    0.018609
C       0.063248    0.016067    0.032674
C       1.011419   -0.544456   -1.078948
C       2.003457   -1.347921   -0.210652
C       3.108224   -2.099490   -0.916845
C       2.286269   -0.332617    0.937247
C       0.782208   -0.575409    1.277985
C       0.202615   -0.276484    2.642127
C       1.033626   -2.037423    0.796277
H       0.842719    2.056245    0.141296
H      -0.545132    1.864016   -0.932240
H      -0.781752    1.870421    0.817827
H      -0.930524   -0.442102   -0.051124
H       0.489242   -1.176086   -1.805451
H       1.513281    0.255502   -1.635621
H       3.743744   -1.417995   -1.494918
H       3.749732   -2.630430   -0.205213
H       2.700033   -2.839967   -1.615045
H       2.951850   -0.744390    1.701649
H       2.613052    0.676849    0.668508
H       0.216723    0.797106    2.860423
H      -0.838931   -0.613715    2.711332
H       0.768064   -0.781296    3.432589
H       0.184350   -2.601315    0.394367
H       1.563076   -2.637820    1.542112
