15

C       0.108206    1.395587    0.101358
N      -0.155745   -0.011188   -0.128957
C       0.524758   -0.719695   -1.077356
N       0.598655   -2.043523   -1.115215
C       1.314732   -2.333168   -2.238810
C       1.694499   -1.187060   -2.900501
N       1.173541   -0.142630   -2.122937
C       2.434680   -0.965555   -4.072826
N       3.044640   -0.766513   -5.040377
H       1.162319    1.609453    0.332676
H      -0.183015    1.989868   -0.773113
H      -0.504820    1.736017    0.937181
H      -0.388763   -0.574422    0.674080
H       1.534177   -3.349937   -2.526246
H       1.252134    0.837294   -2.334486
