17

C      -0.026957    1.533242   -0.072610
C       0.029525    0.023117   -0.009322
C       1.346795   -0.705945   -0.175192
C       0.661416   -0.675542    1.157154
C       1.152191   -0.093677    2.480117
O       0.598932   -1.216426    3.201917
C       0.124248   -1.837197    1.986659
H       0.870962    1.981512    0.366095
H      -0.096913    1.882609   -1.108344
H      -0.892871    1.926162    0.471813
H      -0.838092   -0.479780   -0.432412
H       1.360569   -1.642101   -0.725056
H       2.244655   -0.105665   -0.295750
H       2.241800   -0.025923    2.600728
H       0.698721    0.856952    2.791722
H      -0.966808   -1.965525    1.989668
H       0.599187   -2.812373    1.812014
