19

O      -0.048721    1.525094    0.101545
C       0.045783    0.126411   -0.143969
C      -1.304180   -0.561269   -0.015752
C      -1.439544   -2.113454   -0.111274
C      -0.461964   -2.890230    0.816569
C      -1.304518   -2.459805    2.036639
O      -1.068549   -1.076877    2.398775
C      -1.983837   -0.612652    1.376604
C      -2.468736   -2.057016    1.086066
H      -0.174828    1.640440    1.048730
H       0.428873    0.020980   -1.165351
H       0.772826   -0.340479    0.532687
H      -2.012813   -0.104282   -0.717517
H      -1.653712   -2.539202   -1.091165
H      -0.569346   -3.968027    0.652253
H       0.600588   -2.634676    0.818687
H      -1.362160   -3.104721    2.915666
H      -2.588586    0.228697    1.721703
H      -3.490159   -2.426516    1.095838
