21

O      -0.192980    1.390180   -0.712044
C      -0.016752    0.184704    0.022798
C      -1.355215   -0.501285    0.102929
C      -1.835621   -1.390281   -1.017661
C      -1.506028   -1.989022    0.330251
C      -0.336822   -2.935483    0.509158
C      -0.728888   -4.393631    0.180231
C       0.375192   -5.330287    0.347251
C       1.305880   -6.077388    0.492119
H       0.640685    1.869832   -0.700050
H       0.722348   -0.468052   -0.465685
H       0.356072    0.395378    1.038507
H      -2.111343    0.120967    0.574083
H      -2.871604   -1.325580   -1.330793
H      -1.137960   -1.575770   -1.829377
H      -2.367031   -2.258742    0.939039
H       0.500765   -2.648902   -0.134105
H       0.034584   -2.895109    1.540148
H      -1.567322   -4.697835    0.820645
H      -1.102753   -4.441769   -0.850328
H       2.118599   -6.748903    0.616703
