16

C      -0.023943    1.498748    0.088613
C      -0.062939    0.021551   -0.072125
C      -1.025783   -0.926569    0.106593
C      -2.444749   -0.773402    0.550495
C      -0.343005   -2.135645   -0.239549
C      -0.847421   -3.519480   -0.249378
O      -1.978189   -3.821492    0.055163
N       0.908641   -1.920755   -0.590428
O       1.089643   -0.564902   -0.486721
H       0.732072    1.793484    0.823726
H       0.226005    1.989945   -0.857450
H      -0.994247    1.869177    0.424030
H      -3.138054   -1.151898   -0.206189
H      -2.637298   -1.346840    1.461865
H      -2.686529    0.274668    0.745577
H      -0.096489   -4.271984   -0.562745
