20

C      -0.045992    1.568362   -0.029519
C      -0.010148    0.041294    0.022182
O       0.584714   -0.497333   -1.161757
C       0.829662   -0.480675    1.191340
C       0.753644   -1.999724    1.313931
C       1.420466   -2.679381    2.549384
N       0.089198   -3.175232    2.911656
C      -0.576657   -2.563123    1.878592
O      -1.742087   -2.492189    1.583014
H       0.967188    1.972882   -0.123100
H      -0.629306    1.912580   -0.890729
H      -0.508307    1.983595    0.872184
H      -1.032271   -0.347059    0.137097
H      -0.019552   -0.342581   -1.893837
H       1.871277   -0.171502    1.036558
H       0.483968   -0.010119    2.119702
H       1.025823   -2.462854    0.363449
H       2.147894   -3.465395    2.324289
H       1.848670   -1.980633    3.276524
H      -0.246574   -3.692146    3.710706
