19

C      -0.061859    1.571399    0.012161
C      -0.003817    0.040466   -0.002699
O      -1.339512   -0.495350    0.001819
C       0.643645   -0.479858   -1.292668
C       0.913031   -1.987466   -1.225638
C       1.759673   -2.367343   -0.021218
O       2.538237   -3.299261   -0.028793
C       1.543131   -1.550669    1.198441
C       0.746233   -0.477030    1.211729
H       0.941512    2.009065   -0.003195
H      -0.616958    1.932964   -0.858002
H      -0.570421    1.930220    0.914694
H      -1.745989   -0.285596    0.849800
H      -0.018993   -0.245281   -2.131405
H       1.582680    0.060749   -1.455153
H      -0.044447   -2.513686   -1.121935
H       1.400832   -2.363587   -2.127864
H       2.066284   -1.888546    2.088230
H       0.594988    0.073063    2.140582
