22

C       0.318380    1.539063    0.054217
C      -0.226588    0.122543   -0.117331
N       0.527153   -0.579190   -1.151518
C       1.738771   -1.316596   -0.853857
C       1.688940   -2.121238    0.432404
C       1.717331   -3.590560    0.090905
C       0.417950   -2.836400   -0.060833
C      -0.834225   -3.230243    0.675983
C       0.483919   -2.015991   -1.343810
H       1.360576    1.517175    0.390011
H       0.282304    2.083541   -0.893487
H      -0.264094    2.091072    0.798442
H      -0.210772   -0.398420    0.850478
H      -1.271755    0.161124   -0.447203
H       2.637837   -1.080991   -1.413884
H       1.902739   -1.760844    1.432325
H       2.266291   -3.931747   -0.783546
H       1.764883   -4.273515    0.935791
H      -0.600650   -3.621611    1.671789
H      -1.520480   -2.386936    0.798618
H      -1.373050   -4.017096    0.134507
H       0.264271   -2.386972   -2.340555
