15

N       0.062563   -1.167345   -0.059161
C       0.041830   -0.011219   -0.010684
C       0.004622    1.420972    0.047296
C       0.387634    2.234003   -1.190144
C       1.273507    2.291309    0.015693
C       1.066729    3.416196    1.028466
C      -0.357929    3.220393    1.502294
C      -0.918321    2.120487    0.998565
H       0.755905    1.678920   -2.045639
H      -0.253985    3.076737   -1.424552
H       2.241705    1.811318   -0.050905
H       1.777033    3.340563    1.861613
H       1.221190    4.404738    0.578054
H      -0.852062    3.922070    2.163893
H      -1.918692    1.757436    1.197256
