20

C       0.169643    1.350840   -0.076420
O      -0.245870    0.024239    0.191177
C       0.508583   -0.593656    1.189079
C       0.118315   -2.028228    1.498112
N       0.428603   -2.828524    0.281580
C       1.508208   -2.525000    1.250318
C       2.321733   -3.589299    1.916812
C       1.964309   -1.118801    0.806358
O       2.345568   -0.983539   -0.531162
H       1.201880    1.381618   -0.445045
H      -0.498852    1.746596   -0.844794
H       0.090367    1.984912    0.821197
H       0.544960    0.019752    2.103449
H      -0.623218   -2.375717    2.207471
H       0.112600   -3.781370    0.456613
H       1.688576   -4.408671    2.275377
H       3.058426   -4.010753    1.223502
H       2.867098   -3.185720    2.776605
H       2.754761   -0.690013    1.426672
H       1.654507   -1.442456   -1.031217
