14

N      -0.090032    1.293096   -0.232270
C      -0.007008    0.069060    0.070688
C      -1.262130   -0.781267    0.148021
O      -1.155357   -1.892124    1.018331
C       0.002986   -2.644402    0.716014
C       1.231000   -1.792351    0.971622
O       1.190778   -0.564130    0.226919
H       0.843447    1.703899   -0.305876
H      -2.085975   -0.159492    0.497777
H      -1.498131   -1.121724   -0.875100
H       0.004838   -3.520275    1.370983
H      -0.017433   -2.988304   -0.331529
H       1.298563   -1.552790    2.040326
H       2.148724   -2.301335    0.664433
