21

C      -0.103796    1.433944    0.236290
O      -0.077387    0.025836    0.158183
C       0.579661   -0.452971   -1.002041
C       0.699702   -1.972773   -0.949256
C      -0.537147   -2.624635   -0.319110
O      -1.754674   -2.103709   -0.820823
C       1.229439   -2.596665   -2.263034
C       2.387268   -3.114988   -1.390162
O       1.880892   -2.425509   -0.227738
H       0.912730    1.852706    0.276032
H      -0.627677    1.880937   -0.623022
H      -0.633344    1.700682    1.153799
H       0.009716   -0.169501   -1.902248
H       1.587521   -0.019071   -1.084632
H      -0.533121   -3.698123   -0.533813
H      -0.451449   -2.501972    0.768332
H      -1.829081   -1.220301   -0.440025
H       0.580025   -3.344763   -2.719781
H       1.525586   -1.869217   -3.022602
H       2.415446   -4.201008   -1.238350
H       3.391346   -2.772134   -1.666012
