18

C       0.056247    1.433028   -0.019856
O      -0.210775    0.045242   -0.170287
C       0.616786   -0.600939   -1.059446
C       0.352658   -2.106951   -1.045219
C       0.563002   -2.506039   -2.508844
O      -0.169519   -3.627142   -2.917488
C       0.144458   -1.239966   -3.231484
N      -0.314634   -1.249409   -4.406819
O       0.323385   -0.166961   -2.426146
H       1.099182    1.604609    0.282474
H      -0.141290    1.978968   -0.948834
H      -0.608820    1.797610    0.764720
H       1.669363   -0.333577   -0.880459
H       0.995888   -2.633568   -0.339614
H      -0.692461   -2.273348   -0.770476
H       1.640814   -2.655398   -2.698131
H      -0.497676   -3.411434   -3.803367
H      -0.577332   -0.319056   -4.730596
