18

O      -0.161669    1.383994   -0.000191
C      -0.020925    0.004397   -0.037074
C      -1.319433   -0.755340    0.180508
C      -1.757508   -1.670143   -0.943114
C      -0.773375   -2.150419    0.087451
N       0.676193   -1.978857   -0.171517
C       0.837042   -0.771151   -1.098169
C       2.136207   -0.425906   -0.347009
C       1.112086   -0.817826    0.725855
H       0.700413    1.793280   -0.132412
H      -2.014386   -0.405436    0.933431
H      -2.759857   -2.080323   -0.868767
H      -1.441102   -1.473639   -1.961152
H      -1.025136   -2.958135    0.763428
H       0.695173   -0.856602   -2.176479
H       2.965587   -1.118369   -0.494165
H       2.473498    0.614142   -0.374086
H       1.251656   -0.954101    1.800303
