22

C      -0.057288    1.558510    0.059813
C      -0.033149    0.021580   -0.029298
C       0.691292   -0.497488   -1.240804
C       0.106304   -0.868152   -2.431754
N       1.098630   -1.235378   -3.304179
C       2.317591   -1.106357   -2.689215
C       2.109588   -0.652431   -1.405218
C       3.176251   -0.422887   -0.370069
C       3.360933   -1.608722    0.594488
H       0.956476    1.969923    0.094354
H      -0.555547    1.988616   -0.814802
H      -0.589139    1.894741    0.956488
H       0.423131   -0.380912    0.883356
H      -1.064823   -0.349884   -0.037717
H      -0.931929   -0.896164   -2.724303
H       0.955005   -1.549647   -4.246983
H       3.232264   -1.348585   -3.207863
H       4.130203   -0.221388   -0.871847
H       2.947716    0.477862    0.212641
H       2.434770   -1.828566    1.134916
H       3.642356   -2.513094    0.045749
H       4.141993   -1.399886    1.333594
