17

C       0.127959    1.530207    0.838558
O       0.309647    0.257129    0.238291
C      -0.867278   -0.368506   -0.174572
C      -0.394888   -1.613036   -0.966468
C      -1.475107   -2.261222   -1.700047
N      -2.363141   -2.734768   -2.269094
C      -1.763246   -0.784402    1.022396
N      -3.056516   -1.066422    0.694276
O      -1.333578   -0.829207    2.155937
H       1.126935    1.930437    1.021967
H      -0.409986    2.212442    0.162899
H      -0.411547    1.451417    1.787339
H      -1.449178    0.285383   -0.846357
H       0.376145   -1.284931   -1.670000
H       0.070792   -2.324111   -0.276533
H      -3.338668   -1.214678   -0.261939
H      -3.629918   -1.476995    1.415299
