20

C       0.046506    1.370451   -0.256004
C       0.098212   -0.103910    0.171315
C       0.703984   -0.270045    1.572344
C      -1.288292   -0.720348    0.118539
C      -1.975306   -1.169482   -1.139356
O      -1.142268   -1.461625   -2.257936
C      -0.371512   -2.510606   -1.864342
N      -0.547817   -3.005908   -0.706709
C      -1.578320   -2.201732   -0.087536
H       1.046027    1.817188   -0.239111
H      -0.354363    1.473800   -1.268890
H      -0.589048    1.955032    0.419832
H       0.745764   -0.634303   -0.534961
H       0.767246   -1.326378    1.849676
H       1.712313    0.154487    1.615471
H       0.095732    0.242540    2.327275
H      -1.990301   -0.266769    0.817275
H      -2.969941   -0.858346   -1.432294
H       0.348674   -2.845253   -2.601017
H      -2.261804   -2.721405    0.573039
