19

O      -0.053634    1.437082    0.077133
C       0.008516    0.020637   -0.010489
C       0.804563   -0.556685    1.188903
O       0.588594   -1.940850    1.438473
C      -0.794121   -2.337273    1.356698
C      -1.291077   -2.074317   -0.073381
C      -1.429215   -0.536846    0.000080
C      -2.043176   -0.373536    1.386695
C      -1.696275   -1.405368    2.158450
H       0.843470    1.783732    0.032012
H       0.482521   -0.283707   -0.956346
H       1.882470   -0.450415    1.023521
H       0.535556    0.048739    2.064775
H      -0.804931   -3.383489    1.666740
H      -0.580105   -2.427567   -0.825461
H      -2.263472   -2.543700   -0.245380
H      -2.009454   -0.083253   -0.806837
H      -2.607734    0.499418    1.690110
H      -1.910468   -1.530050    3.212704
