20

O       0.001504    1.412242    0.250520
C      -0.013895   -0.002643    0.348698
C      -1.309643   -0.495718   -0.289134
C      -1.428147   -2.004680   -0.244315
C      -2.004758   -2.711784    0.961977
C      -2.744037   -2.741826   -0.351586
C      -4.068190   -2.009993   -0.520354
C      -5.204078   -2.821219   -0.077230
N      -6.092518   -3.473154    0.270396
H       0.810730    1.735150    0.657160
H       0.848845   -0.450409   -0.171533
H       0.029895   -0.335612    1.397758
H      -2.142878   -0.016061    0.235767
H      -1.341982   -0.136674   -1.325268
H      -0.599795   -2.516679   -0.729405
H      -1.541177   -3.623871    1.319911
H      -2.419014   -2.088030    1.748980
H      -2.710353   -3.680843   -0.895764
H      -4.076775   -1.074402    0.047321
H      -4.229679   -1.739223   -1.570934
