16

C       0.100922    1.095844   -0.131707
C      -0.192179   -0.367095   -0.380556
O       0.620799   -1.139952   -0.843737
C      -1.526694   -0.819509   -0.031132
C      -2.621947   -1.251571    0.241237
C      -3.910734   -1.847310    0.540634
C      -4.064109   -3.356850    0.232512
N      -2.972589   -3.966882   -0.286553
O      -5.118322   -3.911524    0.460751
H       1.125964    1.320443   -0.429460
H      -0.600174    1.720343   -0.696012
H      -0.043436    1.332528    0.928066
H      -4.155673   -1.721126    1.601529
H      -4.708332   -1.335895   -0.010445
H      -2.115890   -3.468346   -0.461058
H      -3.031723   -4.948398   -0.501010
