17

O      -0.140412    1.487385   -0.060636
C      -0.046419    0.081546   -0.060639
C      -1.354384   -0.692855   -0.148159
C      -1.730154   -0.841223   -1.624336
C      -0.721727   -1.778582   -0.986610
C       0.352824   -0.637702   -1.362203
O       1.671797   -0.769231   -1.719706
C      -0.652760   -0.125947   -2.426585
O      -0.364725   -0.697921   -3.695172
H       0.752594    1.844861   -0.015621
H       0.553621   -0.287891    0.783116
H      -2.097165   -0.812379    0.628529
H      -2.749650   -1.050291   -1.922791
H      -0.688126   -2.847330   -0.838856
H       1.673835   -0.877004   -2.683085
H      -0.716582    0.954079   -2.576852
H      -0.579833   -1.637746   -3.641503
