17

C       0.076243    1.497342    0.055773
C       0.030994   -0.007966    0.003400
C      -0.010135   -0.675908   -1.236197
C      -0.011369    0.056144   -2.552197
C      -0.050059   -2.063964   -1.180252
F      -0.090408   -2.765600   -2.318165
C      -0.049355   -2.747539    0.025839
C      -0.006729   -1.978581    1.179999
N       0.032630   -0.644061    1.181147
H       0.958550    1.891111   -0.462451
H      -0.799778    1.942812   -0.430274
H       0.104711    1.820446    1.096572
H       0.885684    0.675332   -2.664140
H      -0.046964   -0.643623   -3.387675
H      -0.873141    0.728009   -2.633274
H      -0.080844   -3.829586    0.048259
H      -0.004054   -2.460018    2.154729
