14

N       0.006096    1.369383    0.134907
C       0.021921    0.002310    0.036072
N      -1.039263   -0.743396    0.016003
C      -0.633047   -2.164948   -0.010724
C       0.864882   -2.122621   -0.021132
C       1.221903   -0.822067    0.009832
O       2.578796   -0.726532    0.009031
C       2.962272   -2.043205   -0.023313
N       1.997707   -2.914621   -0.041068
H       0.793190    1.862341   -0.256494
H      -0.891064    1.789969   -0.059195
H      -1.042586   -2.684424    0.864156
H      -1.060017   -2.651773   -0.895687
H       4.025868   -2.224405   -0.031647
