19

C      -0.054350    1.660658    0.100140
C       0.042733    0.144732    0.024379
C       1.086244   -0.529162   -0.938734
C       1.666874   -1.296085    0.256851
C       2.153156   -0.328858    1.293959
C       0.677991   -0.607661    1.198026
O      -1.283776   -0.421805   -0.133123
C      -1.917880   -0.257720   -1.305354
O      -3.031325   -0.651908   -1.496130
H       0.918800    2.099455    0.334024
H      -0.394146    2.092132   -0.846917
H      -0.762318    1.950613    0.882440
H       0.597657   -1.175880   -1.668792
H       1.773017    0.144083   -1.462425
H       1.978166   -2.332391    0.239126
H       2.636053   -0.772087    2.158734
H       2.569562    0.632834    1.003660
H       0.102471   -1.012795    2.020532
H      -1.311993    0.263724   -2.069243
