17

C      -0.082493    1.534421    0.019167
C       0.020588    0.008953    0.034774
C       0.764853   -0.517000    1.269563
N      -1.325267   -0.556875   -0.067530
C      -1.558700   -1.812825   -0.538283
N      -0.635102   -2.573158   -1.000283
C      -2.961539   -2.205557   -0.491704
N      -4.063213   -2.555977   -0.464164
H       0.914479    1.981477    0.055134
H      -0.587243    1.888269   -0.884167
H      -0.638513    1.901084    0.891041
H       0.553723   -0.330623   -0.858727
H       0.819265   -1.607506    1.244143
H       1.785542   -0.122447    1.295044
H       0.258005   -0.210324    2.191337
H      -2.077633   -0.087214    0.409654
H      -1.019971   -3.448112   -1.345324
