22

C       0.056839    1.351785   -0.063074
O      -0.015058   -0.048211    0.052718
C      -1.334111   -0.588199    0.021081
C      -1.831702   -0.691477   -1.424639
C      -1.261551   -1.936897    0.761770
C      -0.789014   -1.745764    2.209162
C      -2.596131   -2.686401    0.720464
O      -2.431208   -3.919508    1.408056
H       1.109071    1.629339    0.041104
H      -0.301287    1.720324   -1.036118
H      -0.521476    1.856209    0.727200
H      -2.005778    0.083719    0.584946
H      -1.247481   -1.432787   -1.979278
H      -2.887297   -0.974444   -1.469222
H      -1.733673    0.269566   -1.937589
H      -0.523539   -2.553604    0.230871
H      -1.504524   -1.132123    2.771666
H      -0.707470   -2.709820    2.713758
H       0.179402   -1.243810    2.230590
H      -3.379352   -2.070488    1.196423
H      -2.904439   -2.867232   -0.318715
H      -3.269457   -4.389281    1.383471
