19

C       0.227914    1.541765   -0.377110
C       0.067942    0.066704   -0.076344
C       1.258889   -0.863825   -0.047433
C       0.505011   -0.566689    1.223279
C       1.164014    0.244675    2.345384
C       0.157616    0.952069    3.148621
C      -0.683128    1.527431    3.784680
C       2.008121   -0.614396    3.185953
C       2.698473   -1.333031    3.856060
H       1.192184    1.931169   -0.036798
H       0.174001    1.720001   -1.456416
H      -0.557913    2.134615    0.102434
H      -0.844764   -0.359490   -0.485236
H       1.176668   -1.854076   -0.481324
H       2.241278   -0.413807   -0.159547
H      -0.132263   -1.356050    1.608703
H       1.816227    0.999534    1.885648
H      -1.419302    2.036938    4.355699
H       3.308844   -1.962140    4.455396
