21

C      -0.553115    0.153173   -2.825253
O      -0.321075   -0.617606   -1.647196
C      -1.449975   -0.922467   -0.906520
C      -2.210259    0.198672   -0.302359
O      -1.950006    1.371355   -0.419321
C      -2.252797   -2.193785   -1.259715
C      -1.927261   -2.971914   -2.516155
C      -1.352728   -2.192557   -0.058475
C      -0.045524   -2.952360    0.003366
H       0.402216    0.196823   -3.353031
H      -1.297685   -0.324488   -3.475153
H      -0.882547    1.164476   -2.575196
H      -3.085498   -0.142891    0.300812
H      -3.315912   -2.134669   -1.037535
H      -0.884024   -2.845177   -2.809931
H      -2.109700   -4.041244   -2.363657
H      -2.555279   -2.645233   -3.350837
H      -1.867276   -2.127461    0.897624
H       0.525669   -2.851597   -0.919574
H       0.577029   -2.572744    0.819275
H      -0.229278   -4.016100    0.188402
