17

N       0.266643    1.513459   -0.044575
C       0.037537    0.106234    0.017543
C       0.035071   -0.642211    1.370706
C      -1.037271    0.077279    2.211443
C      -2.161741    0.122254    1.128391
C      -1.380408   -0.607553    0.009353
O      -0.746345   -1.701140    0.726876
C      -2.068917   -0.966301   -1.209527
N      -2.607006   -1.196587   -2.206665
H       0.284120    1.852486   -0.999053
H      -0.415326    2.055384    0.472390
H       0.683709   -0.414839   -0.689568
H       0.945068   -0.993387    1.853572
H      -1.321200   -0.517892    3.080468
H      -0.716227    1.063959    2.556485
H      -3.053246   -0.438320    1.411058
H      -2.464005    1.131641    0.836316
