20

C       0.011070    1.515838   -0.177945
C       0.064334   -0.006142   -0.024697
O       0.821455   -0.607223   -1.074898
C       0.697454   -0.453380    1.297083
C       0.768754   -1.998671    1.463679
C       2.275551   -2.273760    1.614622
O       2.827657   -1.078416    2.146581
C       2.176376   -0.016454    1.468597
H       1.016666    1.946795   -0.167357
H      -0.464845    1.793765   -1.125712
H      -0.571838    1.971196    0.629452
H      -0.968084   -0.393514   -0.048546
H       0.448666   -0.321746   -1.914410
H       0.094571   -0.025809    2.103974
H       0.225961   -2.314926    2.358119
H       0.346363   -2.520885    0.602820
H       2.513111   -3.088636    2.303441
H       2.722080   -2.501427    0.633854
H       2.633175    0.149327    0.481673
H       2.299929    0.886811    2.071535
