17

O      -0.035486    1.373947    0.190439
C       0.028622   -0.011625   -0.008869
C      -0.606814   -0.568204   -1.243398
C      -1.300012   -0.720568    0.116114
C      -1.360703   -2.078508    0.732283
O      -2.413845   -2.584323    1.071743
C      -0.066957   -2.774334    0.925383
C       1.109080   -2.140220    0.860558
C       1.264641   -0.674120    0.572220
H       0.568927    1.793456   -0.432367
H      -1.063704    0.138708   -1.926072
H      -0.188173   -1.458518   -1.700197
H      -2.178489   -0.107402    0.276070
H      -0.135126   -3.823992    1.192062
H       2.026321   -2.686217    1.069907
H       2.125022   -0.518309   -0.094307
H       1.520092   -0.156473    1.508035
