16

O      -0.100160    0.259861   -0.950703
C      -0.076845    1.289261   -0.330851
C      -1.210026    2.019093    0.288860
C      -0.972576    2.475007    1.737749
C      -0.665269    3.405858    0.626358
N       0.737378    3.525149    0.246886
C       1.211855    2.171760   -0.122944
C       2.092124    1.570758    0.875069
C       2.800711    1.047799    1.692915
H      -2.214943    1.803583   -0.048849
H      -1.875960    2.652920    2.309422
H      -0.156394    2.031008    2.296239
H      -1.259418    4.299853    0.482454
H       0.798755    4.118113   -0.572973
H       1.735294    2.203794   -1.083817
H       3.435584    0.592980    2.412646
