20

C      -0.029679    1.511587    0.018998
C       0.037241    0.017814   -0.023438
C      -0.026918   -0.768124   -1.100507
C       0.030888   -2.242499   -0.771108
C       1.009921   -3.050136   -1.634113
O       0.629697   -3.123219   -2.999342
C       0.427370   -2.237838    0.731193
C       0.135141   -0.807001    1.243878
H       0.866676    1.935213    0.490021
H      -0.125069    1.943286   -0.981095
H      -0.883373    1.852305    0.619281
H      -0.158055   -0.396899   -2.113307
H      -0.961212   -2.695154   -0.916746
H       2.024374   -2.633661   -1.521951
H       1.042075   -4.086788   -1.280296
H       0.714843   -2.241770   -3.374891
H      -0.092296   -3.010123    1.303602
H       1.500827   -2.444436    0.818305
H       0.908381   -0.437110    1.928470
H      -0.811130   -0.755287    1.801887
