23

C       0.359207    1.552631   -0.251819
C       0.110926    0.090579    0.052803
O       0.908114   -0.815187   -0.760054
C       1.225705   -1.635696    0.384315
C       0.612705   -0.582867    1.347259
C       2.048137   -0.208194    1.811173
C       2.647583   -1.394336    0.970691
C       3.062152   -2.563217    1.865874
C       3.735837   -1.036016   -0.033252
H       1.406644    1.829062   -0.107552
H       0.094102    1.765677   -1.292378
H      -0.261805    2.184675    0.392447
H      -0.956133   -0.133575   -0.100837
H       0.883799   -2.669063    0.260436
H      -0.124396   -0.801666    2.118564
H       2.386180    0.786299    1.510524
H       2.207004   -0.306212    2.888156
H       2.260398   -2.844448    2.558560
H       3.312245   -3.446821    1.267638
H       3.941006   -2.301413    2.465689
H       4.626034   -0.653948    0.479593
H       4.039228   -1.912363   -0.617885
H       3.382197   -0.275458   -0.733141
