17

O      -0.115499    1.366868   -0.148973
C      -0.052893   -0.012072   -0.020008
C      -0.370482   -0.634303    1.350105
C      -1.353717   -0.759361    0.251521
C      -2.742728   -0.172540    0.061297
C      -3.017215   -1.504275   -0.674632
O      -1.687774   -1.999415   -0.357978
C       0.978525   -0.648817   -0.856785
O       1.677517    0.014360   -1.595186
H       0.563548    1.576519   -0.812104
H       0.190462   -1.519199    1.635690
H      -0.573400    0.074474    2.146218
H      -3.312119   -0.027072    0.980908
H      -2.775858    0.735143   -0.541392
H      -3.791599   -2.146170   -0.244280
H      -3.167741   -1.421623   -1.756222
H       1.071134   -1.747930   -0.784338
