21

O      -0.082279    1.416219   -0.026168
C       0.024417    0.004195    0.032480
C      -1.374058   -0.631755    0.040535
C      -1.029980   -2.047480    0.551941
C      -0.361855   -2.818834   -0.618414
C       0.921216   -2.111588   -1.111374
C       0.799088   -0.569833   -1.178196
C      -0.007084   -1.708918    1.630663
C       0.592223   -0.555276    1.336771
H       0.797348    1.776916   -0.179985
H      -2.009770   -0.094035    0.749165
H      -1.850939   -0.624178   -0.944311
H      -1.896624   -2.601234    0.924443
H      -0.116100   -3.843902   -0.318559
H      -1.091256   -2.898298   -1.434201
H       1.738619   -2.362335   -0.428674
H       1.210121   -2.503162   -2.092421
H       0.270428   -0.255560   -2.086067
H       1.804582   -0.129395   -1.228480
H       0.235420   -2.367479    2.457491
H       1.411752   -0.088447    1.872501
