19

O       0.265412    1.265423   -0.255056
C       0.057670   -0.109914   -0.028112
C       0.197346   -0.583256    1.451143
C      -1.331330   -0.324747    1.608428
C      -1.430511   -0.564960    0.071914
C      -1.526521   -2.066122   -0.209198
C      -0.504464   -2.881369    0.598595
O      -0.467661   -4.086017    0.539178
C       0.470741   -2.088568    1.483017
H      -0.261553    1.769603    0.373597
H       0.680392   -0.621493   -0.769876
H       0.892324   -0.023085    2.081731
H      -1.895910   -0.992989    2.265917
H      -1.560803    0.705843    1.892939
H      -2.159245    0.011209   -0.503762
H      -2.521651   -2.460016    0.029290
H      -1.356024   -2.287621   -1.270328
H       1.486499   -2.319568    1.138050
H       0.393706   -2.492780    2.499378
