19

O       0.099580    1.276155   -0.494917
C       0.034593    0.047162    0.213389
C      -1.371769   -0.496414    0.236399
C      -2.432089    0.168855    1.105781
C      -3.624304   -0.817073    1.108369
C      -2.996324   -2.213677    0.874223
C      -1.724639   -1.935290    0.087479
N      -1.815944   -1.028190   -1.071042
H      -0.240573    1.085720   -1.377329
H       0.708911   -0.702127   -0.227062
H       0.383413    0.261005    1.229661
H      -2.026703    0.291027    2.117948
H      -2.703654    1.167682    0.749916
H      -4.200644   -0.771486    2.035413
H      -4.325123   -0.573801    0.302997
H      -2.725139   -2.685186    1.826750
H      -3.677197   -2.900773    0.359948
H      -0.974611   -2.716317   -0.002153
H      -2.783874   -0.782001   -1.263387
