21

C       0.334987    1.125470   -1.302659
C       0.142491   -0.083149   -0.411461
O       0.866960   -1.237153   -0.882091
C       1.438111   -1.486999    0.417688
C       2.936868   -1.693721    0.362469
C       0.821518   -0.168607    0.998094
C       1.768297    0.944444    1.403207
C       1.545479    1.550075    2.776916
O       2.657585    1.336385    0.677113
H       1.386993    1.405317   -1.366339
H      -0.033169    0.887930   -2.305943
H      -0.238576    1.978900   -0.923730
H      -0.929426   -0.315311   -0.325790
H       0.958816   -2.361285    0.882601
H       3.440749   -0.820035   -0.052097
H       3.335419   -1.893431    1.363558
H       3.151545   -2.562819   -0.267708
H       0.106122   -0.354609    1.801034
H       1.624943    0.775849    3.549357
H       2.277636    2.336233    2.964177
H       0.531429    1.960990    2.849458
