16

C      -0.117192    1.435528    0.090810
C       0.037928   -0.066211   -0.091759
C       0.844326   -0.431945   -1.332546
N       0.903104   -1.841520   -1.655438
C       0.649175   -2.757928   -0.840443
O       0.309702   -2.746324    0.505328
C       0.713435   -1.823090    1.451692
O       1.009285   -2.190589    2.543969
O       0.719881   -0.537906    1.096438
H       0.861904    1.920936    0.141744
H      -0.675167    1.860790   -0.747850
H      -0.656979    1.652970    1.015063
H      -0.946681   -0.546224   -0.135810
H       0.415397    0.082650   -2.200511
H       1.866815   -0.048193   -1.221562
H       0.653461   -3.797719   -1.159143
