20

C       0.104422    1.450316    0.156583
C       0.017532   -0.026380   -0.045364
C      -0.174690   -0.777591   -1.182936
C      -0.190731   -2.149948   -0.803277
C      -0.007793   -2.213875    0.559848
C       0.095900   -3.379646    1.489011
C       1.539367   -3.725428    1.869574
O       1.497244   -4.818481    2.773167
N       0.121253   -0.913196    1.003138
H       1.063728    1.755842    0.594053
H       0.004179    1.961404   -0.803710
H      -0.687894    1.828652    0.815452
H      -0.297423   -0.379190   -2.179098
H      -0.324324   -3.001016   -1.454440
H      -0.466300   -3.200177    2.414888
H      -0.355156   -4.258012    1.017820
H       2.104678   -3.970932    0.957851
H       2.024874   -2.846922    2.325782
H       2.400671   -5.079231    2.973764
H       0.244249   -0.648497    1.965787
