16

O       0.001673    1.360331    0.029130
C      -0.019954   -0.027460    0.018730
C      -0.470473   -0.769024   -1.207172
C      -1.333480   -0.772493    0.053838
C      -1.119064   -1.930163    0.965816
C       0.119487   -1.958771    1.459864
C       0.930378   -0.752418    0.999294
C       2.219626   -1.100586    0.400018
N       3.233595   -1.365900   -0.088103
H       0.687919    1.657889   -0.579207
H      -0.817457   -0.142687   -2.022193
H       0.026199   -1.688024   -1.499733
H      -2.276327   -0.239094    0.033441
H      -1.886733   -2.666426    1.173445
H       0.542072   -2.716008    2.107340
H       1.128793   -0.074540    1.841421
