11

N      -0.003291    1.337893    0.129529
C      -0.049880   -0.012917    0.043982
N      -1.105925   -0.778756    0.044528
C      -0.528404   -2.029360    0.001085
N       0.786222   -2.048387   -0.029930
O       1.113882   -0.674187   -0.000566
C      -1.282246   -3.231497   -0.012550
C      -1.929186   -4.243661   -0.024001
H       0.845060    1.789173   -0.172221
H      -0.864027    1.816942   -0.079807
H      -2.499029   -5.140141   -0.033530
