18

C      -0.353796    1.435528   -0.023824
C       0.074654   -0.001761   -0.026813
O      -0.598589   -0.895125    0.900826
C       0.809684   -0.701166    1.046492
C       1.632345   -1.842119    0.475774
C       1.086675   -2.036541   -0.963384
C       0.386055   -0.733851   -1.289310
N       0.108560   -0.227274   -2.423509
O       0.510654   -1.065863   -3.474807
H       0.410981    2.066542   -0.485722
H      -1.276425    1.558797   -0.597997
H      -0.529397    1.774446    0.999750
H       1.121159   -0.188799    1.954329
H       2.688587   -1.550703    0.458979
H       1.550798   -2.748219    1.083000
H       1.866355   -2.254208   -1.695932
H       0.366376   -2.859078   -1.010688
H       0.271226   -0.548714   -4.251345
