17

C       0.048638    1.507333   -0.045366
C      -0.021260    0.013282    0.038117
O       0.415515   -0.715453   -1.164527
C      -0.285871   -1.882517   -0.640430
C       0.462553   -2.199323    0.658417
C       1.845318   -1.618232    0.789168
C       0.663460   -0.767203    1.172261
C      -1.328298   -0.833955   -0.141543
O      -2.504735   -0.676133   -0.100797
H       1.086862    1.843740   -0.125581
H      -0.510806    1.874660   -0.909452
H      -0.383360    1.947675    0.858511
H      -0.488102   -2.656446   -1.377419
H       0.125802   -3.013072    1.287802
H       2.430346   -1.999231    1.618915
H       2.412077   -1.378653   -0.101373
H       0.483270   -0.476427    2.199591
