16

C      -0.442708    1.377435    0.007402
N       0.018511   -0.003920   -0.025129
C       0.229724   -0.659512   -1.226782
C       0.654017   -1.929808   -1.268009
N       0.889445   -2.610969   -0.074596
C       0.714755   -2.063700    1.168395
O       0.926232   -2.675739    2.198545
C       0.234425   -0.626485    1.195655
N       0.033009   -0.002621    2.291949
H       0.279700    2.004956    0.536992
H      -0.568332    1.735711   -1.015099
H      -1.391651    1.446794    0.546700
H       0.034003   -0.091666   -2.123962
H       0.827456   -2.467501   -2.186616
H       1.209677   -3.568433   -0.086571
H       0.252552   -0.644206    3.055779
