15

O      -0.185673    1.330866   -0.136610
N       0.005958   -0.057239   -0.134566
C      -1.098259   -0.666674    0.001778
C      -2.474110   -0.042273    0.144367
N      -3.355777   -1.198937    0.069265
C      -2.729672   -2.389808   -0.133104
O      -3.230068   -3.455457   -0.425033
C      -1.217195   -2.170912    0.043754
O      -0.491546   -2.849062   -0.946751
H       0.708059    1.663051   -0.275151
H      -2.570478    0.498156    1.094555
H      -2.657489    0.678085   -0.661602
H      -4.353377   -1.118358   -0.053178
H      -0.944895   -2.530256    1.052727
H      -1.013754   -3.640515   -1.145313
