19

O      -0.065686    1.483895    0.057439
C       0.044178    0.064782    0.045915
C      -1.367768   -0.510198   -0.033652
C      -2.079429   -0.204225   -1.387989
C      -2.076986   -1.551128   -2.097187
O      -0.674581   -1.973260   -2.260481
C      -0.823707   -2.817674   -1.118624
C      -2.300183   -2.628400   -1.010175
C      -1.395187   -2.039478    0.056226
H       0.818963    1.852566   -0.017154
H       0.624597   -0.286531   -0.817439
H       0.538970   -0.298677    0.961556
H      -1.939690   -0.083147    0.797109
H      -3.109459    0.134480   -1.228995
H      -1.556710    0.567170   -1.958906
H      -2.621810   -1.621126   -3.040094
H      -0.182575   -3.688309   -1.041746
H      -3.127881   -3.310693   -0.878546
H      -1.348228   -2.528165    1.023804
