11

N      -0.056582    1.379781    0.071140
C      -0.106960   -0.001531   -0.007769
C      -1.108992   -0.897026   -0.133921
N      -0.604835   -2.198713   -0.165701
C       0.671303   -2.016636   -0.057109
O       1.631873   -2.939890   -0.032967
O       1.090607   -0.754373    0.043926
H       0.455591    1.806474   -0.693848
H       0.329487    1.717341    0.946694
H      -2.165058   -0.692108   -0.204435
H       1.189431   -3.795007   -0.113621
