20

O       0.193945    1.199958    0.494094
C      -0.041989   -0.190121    0.443052
C      -1.471450   -0.501999   -0.019270
O      -1.508679    0.087880   -1.324590
C      -1.780288   -2.024978   -0.042614
C      -2.766952   -2.266513    1.085023
C      -2.400233   -1.825990    2.455045
N      -3.270125   -0.983059    1.624173
C      -2.568238    0.095371    0.917069
H      -0.097493    1.538568   -0.361617
H       0.656982   -0.693890   -0.244090
H       0.136334   -0.583518    1.447600
H      -2.426538    0.144907   -1.608789
H      -2.230332   -2.277340   -1.008033
H      -0.870798   -2.628540    0.050138
H      -3.503436   -3.055401    0.959610
H      -2.893639   -2.269579    3.315349
H      -1.379156   -1.504479    2.645153
H      -2.146663    0.822173    1.616751
H      -3.307488    0.630112    0.306853
