16

N      -0.017335    1.363582    0.137259
C       0.031540   -0.007286    0.044599
N      -1.143165   -0.646622    0.054072
C      -1.095082   -1.977605    0.014165
N      -0.013339   -2.747358   -0.045623
C       1.155626   -2.085966   -0.054259
C       1.255654   -0.706348   -0.006288
C       2.571922    0.022506    0.012339
O       3.630338   -0.911883   -0.046591
H       0.744895    1.897296   -0.248027
H      -0.935022    1.752777   -0.021462
H      -2.056242   -2.487554    0.027069
H       2.058863   -2.685138   -0.097807
H       2.619709    0.723623   -0.842985
H       2.629588    0.640894    0.925123
H       4.460582   -0.433372    0.025234
