18

N       0.473604    1.606567    1.209347
C      -0.017621    0.607216    0.616491
C      -1.298792   -0.057417    1.038908
C      -2.443138    0.237924    0.081554
C      -2.627747   -0.571538   -1.175706
C      -3.596332   -0.727318   -0.030469
O       0.501622    0.009574   -0.536293
C       1.849852   -0.145972   -0.656517
O       2.354620   -0.525132   -1.665883
H       1.304205    1.979362    0.749437
H      -1.135644   -1.140243    1.089623
H      -1.536833    0.304440    2.042090
H      -2.691962    1.293428    0.016444
H      -2.962573   -0.058489   -2.070043
H      -1.926009   -1.375928   -1.365132
H      -3.550661   -1.640965    0.553395
H      -4.595428   -0.319725   -0.135761
H       2.387914    0.085623    0.278533
