15

C       0.336528    1.477084    0.289832
O       1.263420    0.417200    0.022198
C      -0.121180    0.096483    0.104830
C      -0.533179   -0.797983    1.251245
C       0.139613   -2.204238    1.222052
N       0.927272   -2.276675    2.463081
C       0.736317   -1.177229    3.056088
O      -0.086272   -0.242864    2.511654
H       0.384003    1.885655    1.295235
H       0.207874    2.197303   -0.516497
H      -0.582906   -0.177333   -0.846455
H      -1.626539   -0.856583    1.285491
H      -0.591390   -3.017788    1.196198
H       0.802415   -2.319176    0.358624
H       1.171888   -0.885398    4.004953
