17

N       0.618604    1.248120   -0.276955
C       0.008498   -0.010297    0.170772
C       0.676987   -0.512820    1.405724
N       0.153152   -0.820752    2.548020
C       1.225091   -1.260062    3.316034
C       2.367087   -1.186180    2.593094
C       3.802477   -1.497608    2.825561
O       4.275290   -2.598958    2.058836
O       2.023586   -0.705874    1.348806
H       1.584415    1.078588   -0.541509
H       0.144706    1.569227   -1.115596
H      -1.037261    0.168852    0.431508
H       0.023722   -0.813009   -0.588170
H       1.096609   -1.591381    4.334412
H       4.413813   -0.600292    2.641611
H       3.932176   -1.774116    3.875219
H       4.147133   -2.379089    1.130243
