17

C       0.071308    1.444279    0.057081
N      -0.155368    0.015207   -0.052805
C       0.523115   -0.677937   -1.055920
C       1.166804   -0.127634   -2.165617
N       1.645310   -1.152649   -2.927182
C       1.343444   -2.352467   -2.340588
C       1.754753   -3.590626   -2.958048
O       2.375014   -3.651894   -4.005965
C       0.639601   -2.083347   -1.170378
H       1.135018    1.718695    0.155610
H      -0.324645    1.951986   -0.829880
H      -0.469574    1.828480    0.924868
H      -0.118873   -0.459575    0.837462
H       1.305378    0.900596   -2.455329
H       2.156182   -1.090651   -3.792357
H       1.462038   -4.505922   -2.402083
H       0.251701   -2.821853   -0.484325
