21

C      -0.849610    1.163800   -0.050224
C      -0.024631   -0.122603   -0.091847
C       0.996071   -0.216628   -1.234151
O       1.769919    0.981835   -1.215586
C       1.835608   -1.437514   -0.842723
C       2.022527   -1.293356    0.685591
C       0.815042   -0.446318    1.192864
C       1.296923    0.805435    1.901626
O       0.880609    1.188099    2.965999
H      -0.208489    2.047481   -0.016789
H      -1.481897    1.244217   -0.940359
H      -1.500605    1.180708    0.829003
H      -0.710226   -0.967984   -0.230179
H       0.502490   -0.336548   -2.209596
H       2.487950    0.886344   -1.848871
H       1.278233   -2.349855   -1.084467
H       2.784261   -1.487673   -1.387998
H       2.077074   -2.260240    1.190426
H       2.961951   -0.772990    0.901868
H       0.197316   -0.988347    1.913066
H       2.089350    1.363150    1.355732
