23

C       0.088796    1.564050    0.208752
C      -0.068702    0.064949   -0.063396
C       0.645004   -0.468928   -1.339896
C      -0.011286    0.110718   -2.620064
C       2.048607    0.002488   -1.289269
N       3.131506    0.404600   -1.253377
N       0.691779   -1.949793   -1.299950
C      -0.600043   -2.610557   -1.167070
C       1.477482   -2.562043   -2.366395
H       1.139034    1.846632    0.319627
H      -0.344680    2.175551   -0.588253
H      -0.429091    1.824595    1.136393
H       0.316598   -0.510650    0.784303
H      -1.133936   -0.166700   -0.156216
H       0.025702    1.202126   -2.620332
H       0.498946   -0.238810   -3.520087
H      -1.059383   -0.197051   -2.670480
H      -1.272946   -2.465055   -2.031310
H      -0.422651   -3.685899   -1.071999
H      -1.121965   -2.287411   -0.265320
H       2.455544   -2.081747   -2.441382
H       1.640238   -3.615872   -2.120125
H       0.993633   -2.523954   -3.358359
