18

C      -0.316692    1.784401   -0.333348
N      -0.208707    0.350535   -0.137519
C      -1.270833   -0.442385    0.543578
C      -0.164810   -1.306793    1.184749
C       0.832369   -0.185616    0.757410
C       2.079441   -0.655078    0.040217
O       3.188539   -0.626953    0.505716
C      -2.095218    0.355784    1.545700
O      -1.937459    0.327225    2.739764
H       0.584625    2.139941   -0.843206
H      -1.172498    2.007454   -0.979071
H      -0.424070    2.361692    0.600869
H      -1.960256   -0.925888   -0.162626
H      -0.257765   -1.467472    2.256777
H      -0.003163   -2.252529    0.665226
H       1.112765    0.468961    1.594223
H       1.871039   -1.063221   -0.976085
H      -2.872273    1.010311    1.089511
