17

O       0.017394    1.407035   -0.098861
C       0.031777   -0.002311    0.009824
C      -1.370430   -0.558349    0.099022
O      -2.121449   -0.210329   -1.088738
C      -3.340166   -0.845477   -0.666221
C      -2.807950   -2.274616   -0.386191
C      -1.581658   -2.095152    0.092874
C      -3.547278   -0.149324    0.704142
C      -2.320769    0.030563    1.179837
H      -0.645729    1.616912   -0.767704
H       0.549417   -0.472907   -0.840523
H       0.589234   -0.250696    0.919773
H      -4.127600   -0.738285   -1.410470
H      -3.374340   -3.186949   -0.506343
H      -0.874652   -2.820648    0.469349
H      -4.504689    0.063247    1.157328
H      -1.993961    0.442447    2.123343
