20

O       0.008712    1.417799   -0.080164
C       0.082679    0.001012   -0.012412
C       0.665308   -0.531416    1.322936
C       0.052281   -1.936458    1.520913
C      -1.359655   -1.801878    0.916528
C      -1.335319   -0.590178   -0.043930
C      -1.776660   -1.567108   -1.140130
C      -0.864809   -2.716639   -1.273683
N      -1.845893   -2.747096   -0.174318
H       0.905563    1.765974   -0.053847
H       0.673903   -0.385303   -0.856787
H       1.760389   -0.530333    1.343784
H       0.320025    0.144345    2.114875
H       0.634979   -2.697419    0.991869
H       0.032066   -2.233353    2.572549
H      -2.135589   -1.764537    1.682362
H      -2.067564    0.189355    0.169604
H      -2.575242   -1.378909   -1.850372
H      -1.094744   -3.446298   -2.044379
H       0.197666   -2.619441   -1.067956
