15

N      -0.091048   -1.081043   -0.119050
C      -0.037368    0.073817   -0.069141
C      -0.052765    1.500346    0.021397
C      -1.388156    2.333101    0.306254
C      -0.527086    3.494557   -0.205727
C       0.188840    4.118657    0.750307
C       1.536093    3.420921    0.861395
N       1.339610    2.164637    0.077535
C       0.408014    2.518895   -0.960217
H      -2.162013    1.944084   -0.362888
H      -1.762109    2.401659    1.329251
H      -0.267917    4.573019    1.624219
H       2.418534    3.915643    0.436488
H       1.745737    3.212858    1.915990
H       0.613318    2.423349   -2.019557
