21

C       0.157479    1.611282    0.101159
O       1.422520    1.481271   -0.581484
C       1.288509    0.042771   -0.655695
C       2.460782   -0.677544    0.000282
O       2.231898   -2.074227    0.060686
C       1.579969   -2.519714    1.237407
C       0.098165   -2.143056    1.355317
C      -0.170220   -0.630575    1.446273
C      -0.065540    0.081664    0.099469
H       0.271988    2.071775    1.091548
H      -0.561339    2.200847   -0.481006
H       1.201373   -0.295114   -1.696740
H       3.363275   -0.521012   -0.601467
H       2.653567   -0.259522    0.999192
H       1.678870   -3.610232    1.227135
H       2.120176   -2.146648    2.124463
H      -0.450239   -2.569033    0.505474
H      -0.286996   -2.637530    2.256436
H      -1.175360   -0.460257    1.850909
H       0.523975   -0.181002    2.168836
H      -0.898263   -0.228379   -0.537813
