14

O       0.017913    1.469777    0.115718
C       0.029519    0.060982   -0.058680
C       0.618438   -0.740136    1.177218
O      -0.460189   -1.429164    1.892059
C      -1.496572   -1.345552    1.036257
C      -1.296391   -0.605330   -0.069664
O      -2.464549   -0.622148   -0.788453
C      -3.275651   -1.404637   -0.028983
N      -2.760889   -1.869242    1.076983
H      -0.660494    1.680008    0.768246
H       0.657525   -0.099780   -0.939177
H       1.322818   -1.505827    0.840814
H       1.110445   -0.060576    1.875138
H      -4.269386   -1.574985   -0.412335
