15

C       0.124997    1.453643    0.045390
C      -0.036733   -0.018073   -0.007807
C      -1.121302   -0.845220   -0.097150
C      -0.629063   -2.205009   -0.091151
C       0.722194   -2.093168   -0.006117
N       1.768202   -2.996620   -0.042915
O       1.094908   -0.783808    0.044493
C      -2.470368   -0.422603   -0.170001
N      -3.574723   -0.076228   -0.227684
H       0.733932    1.820351   -0.788830
H      -0.856358    1.929325   -0.007573
H       0.613764    1.770557    0.973961
H      -1.214826   -3.106943   -0.142566
H       1.486135   -3.938995    0.186823
H       2.564887   -2.707951    0.510413
