17

C       0.073561    1.526082   -0.245135
C       0.008825    0.034447    0.101752
O       0.436873   -0.159762    1.425211
C      -1.385958   -0.586794   -0.059977
O      -1.906280   -1.167304    0.874490
N      -1.932724   -0.584648   -1.332691
C      -2.543544    0.545837   -2.019620
C      -3.358758   -0.625128   -1.564253
H       1.074559    1.892961   -0.004545
H      -0.111848    1.706059   -1.307158
H      -0.645152    2.096345    0.351578
H       0.665624   -0.512804   -0.595637
H      -0.253165   -0.703572    1.838309
H      -2.653823    1.475487   -1.469105
H      -2.281485    0.658809   -3.067845
H      -3.695593   -1.359609   -2.289441
H      -3.999231   -0.496551   -0.696504
