19

C      -0.000711    1.508148    0.040607
C      -0.002029    0.011782    0.001874
C      -0.005442   -0.767886   -1.084100
C       0.017470   -2.252763   -0.793337
C       0.048708   -2.312395    0.749794
C       1.412254   -2.486945    1.452028
O       2.319787   -1.526257    0.903492
C       1.416147   -1.092382    1.922604
C       0.035601   -0.823831    1.252703
H       0.901104    1.890842    0.535492
H      -0.040247    1.937680   -0.964133
H      -0.856309    1.894120    0.609890
H      -0.011991   -0.387649   -2.101739
H      -0.860503   -2.762512   -1.210207
H       0.898311   -2.733368   -1.237931
H      -0.727781   -2.940860    1.189194
H       1.846453   -3.381994    1.883960
H       1.849829   -0.641606    2.808336
H      -0.734971   -0.580000    1.991438
