19

C       0.006273    1.600288   -0.077787
C       0.103701    0.090487   -0.084507
C       0.706996   -0.763767   -1.179066
C       0.019633   -1.868628   -1.917146
N       1.934885   -0.148620   -1.725992
C       2.545370   -0.100414   -0.434331
N       3.691318    0.206248   -0.001415
C       1.351460   -0.711013    0.229760
O       1.361114   -1.584791    1.288393
H       0.880492    2.068487   -0.539482
H      -0.883504    1.937277   -0.620732
H      -0.062765    1.978147    0.947096
H      -0.754751   -0.408441    0.366013
H      -0.572198   -1.487214   -2.757996
H       0.750225   -2.579351   -2.315715
H      -0.661072   -2.404591   -1.248622
H       1.863400    0.716315   -2.255666
H       4.290668    0.555220   -0.752319
H       2.184284   -2.086027    1.248949
