14

C      -0.022394    1.525224   -0.006230
C      -0.005522    0.021730    0.016821
C       0.024166   -0.696359   -1.169835
F       0.037947   -0.059035   -2.342532
C       0.039600   -2.090549   -1.134540
F       0.067817   -2.747372   -2.287935
N       0.027711   -2.793813   -0.031183
C      -0.000963   -2.117490    1.125008
C      -0.018146   -0.732432    1.196232
H       0.861314    1.919458   -0.518377
H      -0.895734    1.899253   -0.550319
H      -0.045474    1.930997    1.006916
H      -0.010363   -2.719249    2.028842
H      -0.041254   -0.234346    2.159190
