14

O      -0.063543    0.110557    0.695694
C      -0.064224    1.154186    0.113614
C      -1.347379    1.937275   -0.145332
O      -1.236381    3.047776   -1.012982
C      -0.073346    3.790221   -0.747144
C       1.149516    2.920957   -1.039370
O       1.123638    1.706219   -0.272285
C       1.248810    2.596758   -2.472805
N       1.339268    2.364649   -3.600117
H      -2.075060    1.249375   -0.579798
H      -1.724307    2.243985    0.843771
H      -0.082220    4.666413   -1.398994
H      -0.030047    4.123661    0.301839
H       2.066885    3.437445   -0.738240
