19

C      -0.301840    1.305556    0.011088
O       0.028425   -0.063057    0.066747
C       0.577429   -0.545796   -1.133856
C       0.831691   -2.026936   -0.970797
O      -0.405996   -2.817399   -1.061337
C       0.060987   -3.522753   -2.139863
O      -0.505581   -4.360093   -2.765627
C       1.425439   -2.825092   -2.159078
C       1.834625   -2.136972   -3.457021
H       0.582350    1.930679   -0.191596
H      -1.054842    1.511784   -0.765105
H      -0.713398    1.579554    0.984908
H      -0.104955   -0.368957   -1.980849
H       1.531434   -0.038128   -1.364177
H       1.307245   -2.211818   -0.004467
H       2.211741   -3.512410   -1.832796
H       1.063924   -1.452043   -3.820909
H       2.763709   -1.573587   -3.329310
H       2.000287   -2.889633   -4.232763
