19

C       0.227825    1.414028   -0.163355
N       0.395107   -0.026461   -0.138188
C       0.641037   -0.580438    0.964684
C       0.844637   -0.207504    2.442634
C       1.057567   -1.729922    2.690908
N       0.842358   -1.939706    1.252836
C       0.860756   -3.134358    0.555612
C       0.603828   -3.035019   -0.929519
O       1.075964   -4.171105    1.150953
H       0.960924    1.855564   -0.848340
H      -0.763905    1.660390   -0.560092
H       0.336531    1.900941    0.816920
H       1.713923    0.422806    2.638473
H      -0.031318    0.225982    2.928523
H       2.055553   -2.022806    3.024901
H       0.307073   -2.219988    3.315329
H      -0.365354   -2.567312   -1.122934
H       1.350103   -2.393532   -1.406423
H       0.636551   -4.038655   -1.353280
