18

C      -0.009551    1.539957    0.075777
N       1.507486    1.383632   -0.038519
C       1.826827    0.750288    1.278449
C       0.974966   -0.511961    1.142358
C       1.507068   -1.249493   -0.092592
O       0.406054   -2.085849   -0.532881
C      -0.778555   -1.239769   -0.395644
C      -0.069474    0.015168    0.047032
C       1.226097    0.077397   -0.815634
H      -0.351419    2.091273    0.957090
H      -0.395805    2.007663   -0.833091
H       2.900856    0.553009    1.350424
H       1.535901    1.405010    2.104347
H       0.646929   -1.068458    2.019702
H       2.421532   -1.841674   -0.135000
H      -1.284153   -1.156995   -1.363550
H      -1.462651   -1.684887    0.335175
H       1.221588    0.184296   -1.898500
