17

N       0.138533    1.321009   -0.570854
C      -0.057055    0.013143   -0.162051
C      -1.222844   -0.640786   -0.338919
C      -1.551960   -2.036851   -0.010845
O      -2.735118   -2.369138    0.039499
C      -0.515824   -3.071941    0.148725
C       0.821612   -2.985961   -0.015541
N       1.578021   -1.848495   -0.131239
C       1.149874   -0.616955    0.506877
H       0.780859    1.877598   -0.026709
H      -0.694088    1.829446   -0.832196
H      -2.076441   -0.091353   -0.728600
H      -0.935264   -4.063815    0.273581
H       1.402915   -3.902931   -0.078027
H       2.573822   -1.991813   -0.145272
H       1.990468    0.080936    0.468823
H       0.908082   -0.800158    1.566545
