17

O      -0.159927    0.962073    1.508506
C       0.039137    0.057288    0.468237
C      -0.577926   -1.312577    0.544552
C      -1.107473   -0.300118   -0.457172
C      -2.426261    0.347336   -0.249266
C      -2.734575    1.659573   -0.476067
O      -4.041690    1.907719   -0.198792
C      -4.583425    0.734717    0.221805
C      -3.650775   -0.250126    0.216657
H      -0.985239    1.433765    1.336323
H       1.027830    0.146341    0.024469
H      -0.024323   -2.166766    0.170481
H      -1.188627   -1.506998    1.419513
H      -0.836470   -0.470511   -1.495668
H      -2.166786    2.495663   -0.851848
H      -5.627442    0.771022    0.485840
H      -3.795175   -1.280600    0.500679
