15

O      -0.145831    0.159244   -0.074353
C       0.008648    1.352003   -0.058323
C       1.401493    1.991769    0.031584
N       2.496433    1.043581    0.039570
C       2.774091    0.473505    1.360518
C       3.931133   -0.424199    1.301590
N       4.831294   -1.145974    1.257390
C       1.556860    3.009900   -1.110617
O       0.745038    3.863433   -1.344975
H      -0.832503    2.067821   -0.137721
H       1.415163    2.593776    0.952115
H       2.269183    0.279308   -0.591667
H       3.012413    1.290126    2.052684
H       1.928960   -0.085191    1.791257
H       2.491168    2.875188   -1.695300
