16

C       0.031710    1.426385   -2.320643
C       0.077905   -0.066616   -2.544993
O       0.271807   -0.608408   -3.600675
O      -0.134098   -0.704565   -1.366645
C      -0.148185   -2.082066   -1.261506
C      -0.368240   -2.674802   -0.038508
N      -0.325776   -4.030552   -0.244821
C      -0.084878   -4.297044   -1.565391
C       0.032991   -3.101366   -2.238005
H      -0.939432    1.715516   -1.908949
H       0.794087    1.721896   -1.594257
H       0.201629    1.937684   -3.267231
H      -0.546000   -2.241413    0.930636
H      -0.453650   -4.721918    0.471886
H      -0.015600   -5.310437   -1.925812
H       0.222781   -2.962822   -3.285442
