19

O      -0.073968   -0.066693   -0.173913
C       0.011208    1.114257    0.076764
C       1.221670    1.886540   -0.012612
C       2.223651    2.559202   -0.078480
C       3.421774    3.379621   -0.155484
C       3.191149    4.855152    0.239669
C       4.459483    5.673495    0.144707
C       4.894182    6.255346   -1.179202
C       4.393662    7.161391   -0.081098
H      -0.874037    1.697825    0.404015
H       4.194016    2.939816    0.489949
H       3.824288    3.331245   -1.175630
H       2.422987    5.283166   -0.414845
H       2.788056    4.892205    1.258560
H       5.261744    5.329792    0.794089
H       5.951462    6.269290   -1.418954
H       4.247936    6.100114   -2.037626
H       3.413780    7.611142   -0.204096
H       5.109031    7.793267    0.433172
