21

C      -0.130199    1.566874    0.029286
C       0.016051    0.040551    0.011876
C       0.746319   -0.422353   -1.277992
C       0.012070   -0.119358   -2.500058
C      -0.612922    0.129508   -3.496544
C       0.755402   -0.505792    1.261382
C       0.137977   -0.031027    2.590342
C       0.722442   -2.022868    1.254738
O       1.684095   -2.746017    1.213789
H       0.846319    2.052688    0.142987
H      -0.569899    1.911671   -0.910300
H      -0.774310    1.907035    0.843413
H      -0.990545   -0.400535   -0.004503
H       1.735631    0.054064   -1.315926
H       0.937953   -1.501364   -1.235756
H      -1.153456    0.343306   -4.385052
H       1.809832   -0.207084    1.219122
H       0.654421   -0.485199    3.441511
H       0.214828    1.053120    2.694895
H      -0.921953   -0.302312    2.654889
H      -0.310411   -2.447265    1.305953
