14

N      -0.048393    1.355463    0.132905
C       0.023121   -0.005286    0.050416
N      -1.141111   -0.665379    0.041210
C      -1.076108   -2.002077    0.003980
N       0.030130   -2.755423   -0.032761
C       1.181096   -2.070931   -0.027468
C       1.250815   -0.693090    0.014510
C      -2.331172   -2.699685   -0.001608
C      -3.381600   -3.284493   -0.006255
H       0.751574    1.905369   -0.129864
H      -0.955559    1.759735   -0.037741
H       2.090994   -2.666180   -0.058897
H       2.199786   -0.169820    0.022752
H      -4.308066   -3.803735   -0.009829
