18

N      -0.266902    1.293385   -0.158835
C      -0.093015   -0.117011    0.135779
C       0.965538   -0.434859    1.188734
O       1.644055    0.382899    1.758010
O       1.048335   -1.762856    1.403102
C       2.013340   -2.179052    2.386295
C       1.995977   -3.678123    2.432562
C       2.358021   -4.395382    3.660724
O       0.996220   -4.285374    3.250565
H      -0.510000    1.783269    0.697883
H       0.628682    1.686722   -0.435160
H      -1.042127   -0.550183    0.471992
H       0.170212   -0.661508   -0.778868
H       3.002469   -1.802788    2.103367
H       1.751566   -1.757697    3.361274
H       2.153823   -4.173081    1.474031
H       2.795251   -5.389919    3.590720
H       2.624196   -3.833852    4.555599
