12

C      -0.003790    1.521968    0.010280
C      -0.035894   -0.007783    0.002257
C      -1.452190   -0.566537    0.012844
O      -1.367998   -1.983946    0.004536
H       1.024776    1.894112    0.002398
H      -0.512867    1.937646   -0.866539
H      -0.495841    1.928013    0.901217
H       0.481408   -0.395306   -0.883161
H       0.498286   -0.404863    0.873303
H      -1.987342   -0.203995    0.906661
H      -2.004315   -0.194595   -0.866665
H      -2.261718   -2.338243    0.010347
