19

C      -0.031249    1.529462    0.135268
C       1.523094    1.584827   -0.019198
C       1.568683    0.041761   -0.036743
C       2.477648   -0.836866   -0.818716
C       2.769978   -1.961663   -0.159271
C       2.132847   -2.029332    1.213517
C       1.375113   -0.690277    1.322365
O      -0.059115   -0.791482    1.129793
C       0.005341   -0.011927   -0.074944
H      -0.412305    1.802906    1.121624
H      -0.586623    2.085010   -0.623884
H       1.828548    2.016376   -0.976951
H       2.090816    2.079109    0.774558
H       2.820104   -0.593503   -1.818860
H       3.389394   -2.763718   -0.546801
H       1.423567   -2.860955    1.304175
H       2.879637   -2.160315    2.006972
H       1.613211   -0.133683    2.236045
H      -0.597692   -0.437883   -0.881074
