13

C      -0.016525    1.554005   -0.001195
C      -0.018137    0.003581    0.052087
C       0.727544   -0.498671    1.210087
C       1.351505   -0.886470    2.159323
C      -1.385232   -0.521372    0.042203
C      -2.518799   -0.936207    0.019783
C      -3.800839   -1.405742   -0.003465
N      -4.892000   -1.803443   -0.025527
H       1.013998    1.913997   -0.034192
H      -0.547226    1.899124   -0.891471
H      -0.504727    1.964229    0.884875
H       0.476554   -0.364002   -0.859005
H       1.899805   -1.239099    2.998137
