16

C      -0.089453    1.484481   -0.024370
C      -0.082167    0.008716    0.185296
C      -1.051089   -0.913427    0.222488
N      -2.278176   -1.254995   -0.440427
C      -1.624610   -2.565889   -0.817968
C      -0.498856   -2.280904    0.254384
O       0.889625   -2.153333    0.067319
C       1.189329   -0.782581    0.152268
O       2.317578   -0.389248    0.091641
H       0.715836    1.775684   -0.704501
H      -1.047033    1.817249   -0.434281
H       0.080573    2.020626    0.916829
H      -3.102913   -1.348096    0.143571
H      -2.227531   -3.462706   -0.658286
H      -1.267107   -2.515839   -1.848195
H      -0.695886   -2.865557    1.159455
