22

C       0.557363    1.440049    1.336033
C       0.584817    0.128363    0.545113
N       0.810657   -1.004183    1.421616
C       0.026602   -1.957910    1.687032
C       0.487681   -3.120133    2.534350
C       1.963941   -3.079307    2.896718
O       2.231501   -4.241852    3.672277
O      -1.271813   -2.199920    1.316899
C      -2.179410   -1.154090    0.997590
H       1.451167    1.523996    1.960587
H       0.521354    2.298960    0.658572
H      -0.315421    1.488461    1.995994
H      -0.306983    0.052593   -0.087179
H       1.440910    0.159877   -0.141402
H      -0.117071   -3.155732    3.448726
H       0.263548   -4.050343    1.999123
H       2.570462   -3.053843    1.980323
H       2.184540   -2.158486    3.453198
H       3.160302   -4.223928    3.919000
H      -3.173945   -1.519396    1.267980
H      -1.966594   -0.246527    1.570122
H      -2.171747   -0.921312   -0.072334
