18

C      -0.089599    1.445198   -0.099754
C       1.292238    0.864143    0.070423
C       0.092687   -0.049596    0.003470
C      -0.353295   -0.786686    1.225605
C      -1.704417   -1.473590    1.387707
C      -2.078472   -2.190949    0.096029
O      -0.782757   -2.849596    0.037439
C      -0.426053   -2.281623    1.303275
H      -0.529573    1.959674    0.748598
H      -0.358603    1.868513   -1.061471
H       1.971260    0.885118   -0.774764
H       1.779965    0.990526    1.031954
H      -0.017021   -0.617542   -0.913993
H      -0.030894   -0.340327    2.165729
H      -2.368135   -1.283748    2.220522
H      -2.874236   -2.933105    0.223933
H      -2.279815   -1.581206   -0.792471
H       0.101282   -2.916928    2.006454
