19

C      -0.354207    1.750728   -0.142309
C      -0.447808    0.224225   -0.202015
C       0.545980   -0.500413   -1.105102
C       1.121330    0.140765   -2.317505
N       1.963508   -0.112075   -1.132144
C       0.304354   -1.984440   -1.137989
C       1.392109   -2.966232   -1.118691
O       0.618776   -2.706160    0.057705
H       0.636196    2.096178    0.175021
H      -0.581138    2.215287   -1.106665
H      -1.072681    2.140148    0.584606
H      -0.326163   -0.191288    0.806005
H      -1.459561   -0.059186   -0.520728
H       1.366310   -0.466499   -3.185021
H       0.842840    1.164418   -2.549109
H       2.099568    0.751687   -0.613635
H      -0.648237   -2.274857   -1.587169
H       1.236819   -3.946011   -1.569277
H       2.415644   -2.603301   -1.087310
