21

C      -0.047317    1.487914    0.088205
C       0.030811   -0.018911    0.031753
C       0.920464   -0.765771   -1.008047
C       0.847700   -1.911656    0.006670
C       0.743606   -0.885875    1.173586
C      -0.292600   -1.771158    1.883777
C      -0.679343   -2.147807    0.426989
O      -1.413970   -3.280623    0.092281
C      -1.280932   -0.830606   -0.083134
H       0.948433    1.935430    0.180626
H      -0.510925    1.893147   -0.819131
H      -0.645621    1.823552    0.943113
H       0.519465   -0.903727   -2.018078
H       1.931752   -0.349663   -1.067825
H       1.515110   -2.774318    0.024646
H       1.614003   -0.455850    1.666846
H       0.204266   -2.594076    2.410938
H      -1.062046   -1.329406    2.525421
H      -0.993484   -4.045200    0.498683
H      -2.089962   -0.469773    0.559388
H      -1.648788   -0.896101   -1.110999
