21

C       0.375834    0.657230   -1.648504
N       0.020960   -0.113271   -0.461716
C       0.292531    0.626443    0.765805
C      -1.323687   -0.598120   -0.507768
C      -1.652076   -1.752046   -1.403671
C      -1.631134   -1.971228    0.105752
C      -0.520907   -2.817342    0.708646
C      -2.911774   -2.090265    0.757141
N      -3.934852   -2.185616    1.289810
H       1.438289    0.916700   -1.608661
H       0.201251    0.059277   -2.546649
H      -0.200012    1.595959   -1.743409
H      -0.305044    1.552826    0.849109
H       0.071273    0.001078    1.634582
H       1.350693    0.902517    0.801357
H      -2.118036    0.144601   -0.376066
H      -2.607351   -1.758988   -1.914029
H      -0.831151   -2.209433   -1.944933
H       0.428758   -2.555729    0.239448
H      -0.435430   -2.645112    1.785528
H      -0.718937   -3.881655    0.551972
