17

C       0.236096    1.447250   -0.015540
C       0.135301   -0.075568   -0.008067
C      -1.285974   -0.577299    0.040127
O      -2.258447    0.149969    0.069412
C      -1.496813   -2.085695    0.053193
N      -0.500101   -2.872725    0.023435
N      -2.857442   -2.402612    0.099449
C      -3.398725   -3.660738    0.122528
O      -2.766214   -4.693819    0.105080
H       1.283370    1.758213   -0.051402
H      -0.279486    1.872748   -0.880547
H      -0.220559    1.877494    0.879719
H       0.613175   -0.525886   -0.886627
H       0.670357   -0.521381    0.839230
H      -0.810659   -3.846665    0.037621
H      -3.464913   -1.591094    0.116387
H      -4.503513   -3.631909    0.158431
