19

C       0.018318    1.785722   -0.081938
C       1.462319    1.445497    0.084060
O       1.014130    0.293078    0.964357
C      -0.014482    0.204842   -0.120939
C      -1.374825   -0.252020   -0.624324
C      -1.133963    0.375969   -2.085241
C       0.429490    0.375860   -2.324568
C       1.715151    0.833173   -1.345442
C       0.940535   -0.392009   -1.200054
H      -0.466821    2.083665    0.849318
H      -0.286123    2.407243   -0.920690
H       2.229531    2.054965    0.559967
H      -1.506933   -1.336098   -0.685711
H      -2.236080    0.191483   -0.120492
H      -1.556426   -0.291821   -2.843738
H      -1.636775    1.340330   -2.189570
H       0.761064    0.205706   -3.345519
H       2.669476    0.891176   -1.858579
H       1.261570   -1.423360   -1.097080
