16

C       0.116428    1.305989    0.670407
C      -0.063259   -0.064731    0.055707
C      -1.363726   -0.541718   -0.426381
O      -0.365062   -0.088036   -1.344926
C       1.399279    1.954467    0.247711
C       1.932372    2.107035   -1.013213
N       3.096226    2.760848   -0.795439
N       3.291419    3.006977    0.512357
N       2.263273    2.517067    1.143978
H      -0.740006    1.931230    0.390591
H       0.117530    1.227330    1.762515
H       0.676602   -0.808406    0.354789
H      -1.574615   -1.609449   -0.456746
H      -2.237923    0.101254   -0.332040
H       1.590953    1.807842   -1.989118
H       3.790233    3.059653   -1.461941
