18

C       0.008010    1.556634   -0.385045
C      -0.018917    0.071654   -0.092423
C      -1.349404   -0.472858    0.435918
C      -1.807323    0.187882    1.650088
C      -2.182327    0.747271    2.655930
C      -2.606965    1.374134    3.786736
C      -2.984766    1.931358    4.789414
C       0.835188   -0.838682   -0.897398
N       1.158601   -0.562401    0.516165
H       0.979083    1.856515   -0.791311
H      -0.760529    1.828937   -1.117244
H      -0.180788    2.135899    0.524423
H      -2.116155   -0.370010   -0.344632
H      -1.231898   -1.545225    0.628391
H      -3.316615    2.419150    5.671844
H       0.516250   -1.857840   -1.100889
H       1.454013   -0.398070   -1.675039
H       1.924666    0.103911    0.576722
