17

C      -0.327560   -1.187950    0.340407
C      -0.158220   -0.007616    0.187818
C       0.005459    1.405919   -0.022145
O       0.611066    2.172527    1.033090
C       1.335187    2.039239   -0.188280
C       2.620616    1.267180   -0.146209
C       3.328623    1.056781   -1.506423
O       4.463940    1.841778   -1.095393
C       3.891417    2.078521    0.206649
H      -0.475919   -2.230096    0.483205
H      -0.846214    1.899602   -0.489795
H       1.363733    2.953222   -0.787240
H       2.488056    0.358715    0.441391
H       3.601320    0.020408   -1.737900
H       2.820236    1.491146   -2.377754
H       3.731900    3.147051    0.400148
H       4.507443    1.659881    1.011084
