19

O      -0.040372    1.279977   -0.951833
C      -0.062987    0.060525   -0.272770
C      -0.075668   -1.226008   -1.062148
C      -1.313985   -0.773784   -0.304096
C      -1.553013   -1.339854    1.084390
C      -0.173795   -1.210246    1.803966
C       0.495214    0.028623    1.142396
C      -0.269908   -1.129715    3.253228
C      -0.359426   -1.051312    4.449788
H       0.853903    1.421611   -1.281007
H      -0.120235   -1.109517   -2.139427
H       0.488589   -2.090893   -0.726128
H      -2.163682   -0.445284   -0.891269
H      -2.298900   -0.731910    1.607045
H      -1.908863   -2.374798    1.090321
H       0.424720   -2.094787    1.555442
H       1.588033   -0.027278    1.191629
H       0.183120    0.945842    1.652276
H      -0.435438   -0.986150    5.506706
