18

O      -0.098035    1.358822    0.212060
C       0.038286   -0.031606    0.057265
C       1.115830   -0.581470   -0.841321
C       1.219896   -0.739378    0.668636
C      -1.316186   -0.683992    0.082387
C      -2.285128   -0.316179    1.232240
O      -3.316635    0.061577    0.298193
C      -2.426872   -0.101101   -0.824751
H       0.773275    1.765152    0.194402
H       0.905529   -1.459174   -1.443427
H       1.782132    0.130712   -1.318666
H       1.954858   -0.131376    1.187463
H       1.080818   -1.725156    1.099940
H      -1.196878   -1.762763   -0.038630
H      -2.603113   -1.136255    1.886818
H      -1.952305    0.531818    1.841761
H      -2.167836    0.858858   -1.286017
H      -2.842339   -0.773261   -1.584816
