17

C      -0.081272    1.481314    0.010638
O       1.153763    0.747816   -0.005513
C      -0.072985    0.017928    0.002754
C      -0.408040   -0.874307    1.160072
C      -1.574036   -1.769973    0.786869
C      -0.168210   -2.323890    0.767930
C      -0.183567   -2.315596   -0.785293
C      -1.589454   -1.761706   -0.770484
C      -0.431012   -0.861951   -1.157141
H      -0.292234    2.020027    0.934085
H      -0.310436    2.029821   -0.902651
H      -0.264791   -0.555207    2.184336
H      -2.403266   -1.997456    1.441867
H       0.298767   -3.056443    1.410733
H       0.270541   -3.041190   -1.444987
H      -2.431508   -1.982319   -1.411317
H      -0.308066   -0.531934   -2.180584
