23

C       0.022048    1.588442    0.218293
C       0.016966    0.064803    0.027313
C       0.681189   -0.403952   -1.242808
C       1.608770   -1.591154   -1.310449
C       2.131737   -0.240072   -1.722404
C       1.656558    0.110281   -3.138758
C       0.204841   -0.118363   -2.665911
C      -0.902829   -0.809739   -3.409993
C      -0.997504    0.667276   -3.091640
H       1.047565    1.969745    0.259670
H      -0.486278    2.101646   -0.602852
H      -0.479322    1.868073    1.150435
H       0.516807   -0.404409    0.883482
H      -1.017566   -0.306655    0.050695
H       1.968239   -1.953579   -0.351662
H       1.454380   -2.371010   -2.053363
H       2.963719    0.227147   -1.208755
H       1.845375    1.154883   -3.403252
H       2.023873   -0.532278   -3.947577
H      -0.724349   -1.099924   -4.440633
H      -1.546417   -1.490076   -2.860511
H      -1.713364    0.972163   -2.334961
H      -0.883389    1.379243   -3.903750
