21

C       0.022160    1.539843   -0.169557
C      -0.038060    0.036429   -0.017885
C      -1.213801   -0.611565    0.097009
C      -1.305965   -2.116135    0.122078
C      -0.653954   -2.631411    1.379943
C       0.669744   -2.517225    1.604106
C       1.322808   -3.152707    2.810984
C       1.549654   -1.772412    0.716364
C       1.240605   -0.657409    0.008153
H       0.565754    2.009053    0.659018
H       0.550771    1.817387   -1.090261
H      -0.978117    1.978115   -0.211846
H      -2.135247   -0.037834    0.162392
H      -2.348301   -2.439588    0.067689
H      -0.786338   -2.528998   -0.754686
H      -1.280449   -3.121820    2.121231
H       2.119480   -3.842337    2.504586
H       1.788617   -2.402816    3.461272
H       0.600545   -3.717467    3.405799
H       2.595185   -2.078240    0.721372
H       2.061890   -0.154187   -0.500718
