18

C       0.000201    1.468095   -0.052149
N       0.027880    0.036048    0.136572
C      -1.221682   -0.703899    0.403531
C      -0.453690   -1.571467    1.429391
O       0.059468   -2.804023    0.931326
C       1.389865   -2.666112    0.456891
C       1.911342   -1.306047    0.931852
O       3.055833   -0.939739    0.934239
C       0.672458   -0.522321    1.350356
H       1.022445    1.848120   -0.142252
H      -0.529822    1.705436   -0.980338
H      -0.498250    2.006016    0.776142
H      -1.997831   -0.088724    0.886925
H      -1.651663   -1.222052   -0.459684
H      -0.949879   -1.764261    2.381370
H       2.011040   -3.475714    0.854919
H       1.432775   -2.708272   -0.640822
H       0.824219    0.166556    2.187850
