15

C       0.110139    1.500025    0.033959
C      -0.050423    0.014960    0.015775
C      -1.224908   -0.674517    0.006714
N      -2.503950   -0.092375    0.088908
C      -1.097242   -2.098466   -0.003220
N       0.017806   -2.761265   -0.006651
C       1.208814   -2.061843    0.022801
O       2.307003   -2.535164    0.035870
O       1.121807   -0.649045    0.036979
H       1.096503    1.767031   -0.350075
H      -0.651225    1.990607   -0.581311
H       0.023016    1.898139    1.052238
H      -2.515943    0.898241   -0.112892
H      -3.187565   -0.561439   -0.492576
H      -2.015206   -2.691488   -0.012284
