20

C       1.066614    0.755928    0.882744
C      -0.051301    0.374264   -0.095286
C       0.492940   -0.357388   -1.307481
C       0.943201   -1.781025   -1.402924
C       0.496738   -2.845674   -0.436248
O      -0.391416   -2.431313    0.612718
C      -0.959797   -3.002756   -0.572351
C      -1.433523   -1.989909   -1.609417
N      -0.243534   -1.302427   -2.166288
H       1.515747   -0.139020    1.323647
H       1.861593    1.321366    0.383406
H       0.679204    1.375305    1.697353
H      -0.800924   -0.215408    0.427472
H      -0.543326    1.285615   -0.460582
H       1.079726    0.317147   -1.935035
H       1.827848   -2.026801   -1.987151
H       1.170328   -3.659129   -0.182270
H      -1.491245   -3.940967   -0.426615
H      -1.926685   -2.519629   -2.432373
H      -2.155854   -1.278067   -1.195763
