12

O      -0.061496   -0.019440   -0.038916
C      -0.008360    1.177647    0.038328
C       1.255081    1.973148   -0.034269
C       1.259067    3.321408    0.057199
C       2.524117    4.030323   -0.022144
O       2.679779    5.236316    0.044027
C       3.659588    3.093635   -0.200267
N       3.608276    1.811771   -0.282425
O       2.354449    1.218252   -0.196488
H      -0.906798    1.815512    0.172893
H       0.331915    3.867188    0.187834
H       4.661259    3.509060   -0.273864
