19

C      -0.051331   -1.135536   -0.560322
C      -0.020559   -0.010766   -0.138245
C       0.043590    1.353429    0.377256
C       1.432875    1.966311    0.264542
C       1.870019    2.631620   -1.020402
C       1.600002    3.454237    0.203108
C       0.565226    4.557412    0.414793
O       1.519951    5.335650    1.168031
C       2.554572    4.342046    0.995481
H      -0.088664   -2.128140   -0.935150
H      -0.677627    1.980497   -0.163502
H      -0.280703    1.360610    1.426598
H       2.201072    1.420194    0.806379
H       2.899135    2.508582   -1.342822
H       1.151304    2.680980   -1.833784
H       0.231853    5.081093   -0.490971
H      -0.313896    4.293380    1.018453
H       2.902773    3.939993    1.956412
H       3.414469    4.737191    0.438175
