20

O      -0.015902   -0.071540    0.039912
C      -0.027777    1.145344    0.025840
N      -1.198265    1.859191   -0.005606
C      -1.339916    3.305944    0.121927
C       0.012940    4.007438   -0.055258
C       0.573008    3.843105   -1.492114
C       1.441289    2.551130   -1.450746
C       1.241615    1.993923   -0.016747
C       1.051653    3.274654    0.813462
H      -2.030107    1.288500    0.041289
H      -2.050931    3.669541   -0.631079
H      -1.756761    3.558553    1.108507
H      -0.113715    5.058261    0.218047
H      -0.230938    3.778046   -2.230957
H       1.181485    4.710897   -1.761832
H       1.159970    1.823244   -2.215630
H       2.498651    2.787182   -1.604788
H       2.063326    1.354505    0.306490
H       1.989305    3.837855    0.873812
H       0.704065    3.086485    1.834360
