18

C      -0.011337    1.568390    0.026769
C       1.501881    1.847327   -0.022107
O       2.003653    1.480278   -1.313867
C       1.973504    0.047192   -1.336379
C       0.510405   -0.423042   -1.427171
C       0.006784    0.028725   -0.042276
N       1.113183   -0.372849    0.904774
C       2.047899    0.781012    0.938848
C       2.353408   -0.385059    0.087498
H      -0.435736    1.908877    0.977430
H      -0.552161    2.041869   -0.796471
H       1.801543    2.875102    0.184654
H       2.633103   -0.298859   -2.132649
H      -0.025801    0.032796   -2.263289
H       0.460837   -1.513241   -1.521047
H      -0.925406   -0.443165    0.269548
H       2.535187    1.021707    1.877126
H       3.101789   -1.140889    0.298209
