16

N      -0.065955    1.222962    0.500508
C      -0.006306    0.068137    0.001231
O       1.156686   -0.576163   -0.299777
C       1.063851   -1.876451   -0.858789
C       0.006830   -2.097821   -1.974684
C       0.031545   -3.597086   -1.580475
C       0.041663   -2.855019   -0.219211
C      -1.023890   -1.902091   -0.828421
O      -1.145196   -0.608199   -0.267905
H       0.875574    1.584232    0.637637
H       2.085654   -2.217834   -1.026314
H      -0.012783   -1.656337   -2.969920
H      -0.867369   -4.172626   -1.810888
H       0.937893   -4.149620   -1.836787
H       0.061718   -3.275920    0.784895
H      -2.039024   -2.273275   -0.968387
