19

O      -0.311787    0.158840    0.698406
C      -0.204359    1.273129    0.257496
C      -1.356974    2.150562   -0.250716
C      -0.696927    3.462653   -0.707306
C       0.602844    3.539824    0.123022
C       1.098140    2.084711    0.168301
C       2.120756    1.752198    1.270718
C       2.831460    0.497054    1.059610
C       3.449151   -0.514722    0.864077
H      -1.930746    1.629577   -1.021636
H      -2.039145    2.310060    0.593478
H      -0.447778    3.409757   -1.773207
H      -1.338037    4.336244   -0.568579
H       1.339429    4.227088   -0.301073
H       0.379765    3.886373    1.141034
H       1.540915    1.839595   -0.808460
H       2.851906    2.568858    1.327480
H       1.608186    1.728430    2.240665
H       3.973325   -1.423793    0.703701
