22

C      -0.738509    1.327216    0.227925
C      -0.111144   -0.034944    0.333311
N       1.064542   -0.190994    0.786951
O      -0.980832   -0.978067   -0.120623
C      -0.577219   -2.358027   -0.130211
C      -0.650493   -2.982444    1.290625
C      -1.950895   -3.832037    1.322429
C      -2.741170   -3.404324    0.071565
C      -1.634633   -3.106849   -0.950242
H      -0.040591    2.080357    0.590616
H      -1.007960    1.540388   -0.811149
H      -1.661594    1.364435    0.814976
H       1.353193   -1.167647    0.808043
H       0.421092   -2.425224   -0.576286
H       0.233559   -3.593259    1.496208
H      -0.664963   -2.185230    2.037165
H      -1.703263   -4.897211    1.255723
H      -2.515191   -3.694946    2.248316
H      -3.449998   -4.164378   -0.267400
H      -3.305848   -2.487497    0.272618
H      -1.959417   -2.521584   -1.813356
H      -1.199565   -4.043794   -1.318381
