27

C       0.125486    1.578966    0.041899
C       0.034773    0.051706    0.098904
C      -1.395118   -0.476330   -0.080256
C      -1.482254   -1.996346   -0.009971
C      -1.223518   -2.719084    1.340656
C      -2.336342   -3.734219    0.973425
C      -2.867142   -2.738064   -0.107254
C      -4.046746   -1.915929    0.421293
C      -3.202399   -3.334294   -1.471616
H       1.155727    1.924785    0.173610
H      -0.233610    1.961632   -0.920149
H      -0.483435    2.041176    0.827023
H       0.680418   -0.383836   -0.675354
H       0.433035   -0.302793    1.058435
H      -2.039461   -0.028870    0.688090
H      -1.787807   -0.129339   -1.046866
H      -0.818027   -2.421730   -0.773944
H      -0.220655   -3.114166    1.519628
H      -1.500015   -2.093905    2.196207
H      -1.928818   -4.644064    0.522192
H      -3.036140   -4.024350    1.762512
H      -3.848164   -1.499994    1.414233
H      -4.290066   -1.082242   -0.246864
H      -4.939511   -2.546744    0.502685
H      -4.091930   -3.973613   -1.418083
H      -3.406683   -2.549419   -2.210175
H      -2.375816   -3.944009   -1.852194
