19

O       0.094215    1.515842   -0.038491
C      -0.027654    0.119470   -0.033094
C       0.035745   -0.710421    1.284482
C      -1.409548   -0.217391    1.601653
C      -1.426544   -0.578079    0.079770
C      -0.626320   -1.858571    0.472109
C      -2.567732   -0.468095   -0.868602
C      -2.715590    0.700988   -1.750268
O      -2.235461   -0.544720   -2.259548
H      -0.353225    1.879047    0.732673
H       0.598850   -0.238481   -0.852835
H       0.871917   -0.792858    1.978974
H      -2.006440   -0.856500    2.257782
H      -1.554012    0.831952    1.879525
H      -0.027734   -2.322273   -0.316118
H      -1.172415   -2.602145    1.056471
H      -3.468677   -1.022364   -0.597571
H      -3.707666    0.993110   -2.092211
H      -1.975723    1.496739   -1.695198
