18

N      -0.208536   -1.123943    0.174271
C      -0.069871    0.023513    0.203635
C       0.084540    1.459342    0.202020
N       0.882773    2.043607    1.300037
C       1.402877    2.116182   -0.066279
C       2.655350    1.327691   -0.363428
N       3.827038    2.141987   -0.065681
C       4.333152    2.056955    1.304310
C       5.066664    1.411438    0.181744
H      -0.804365    1.988095   -0.131211
H       0.467404    2.926001    1.586819
H       1.346112    3.075300   -0.577284
H       2.631483    0.382932    0.204398
H       2.677192    1.073598   -1.430257
H       4.691977    2.989551    1.729842
H       3.804884    1.409375    1.999995
H       5.037021    0.324506    0.127078
H       5.967182    1.863072   -0.223990
