19

C      -0.240512    1.577249    0.001574
C       0.036421    0.066161   -0.044537
C       0.921667   -0.406318   -1.181917
C       1.886065   -1.236220   -0.765667
C       1.884904   -1.387697    0.717401
C       2.162960   -0.098142    1.483911
O       2.810842    1.000946    0.920638
C       0.738238   -0.497514    1.199961
O      -0.067945   -0.931213    2.255759
H       0.683830    2.145610    0.126330
H      -0.740149    1.913336   -0.912883
H      -0.900957    1.816994    0.842076
H      -0.932356   -0.451021   -0.121682
H       0.744032   -0.116376   -2.212141
H       2.610584   -1.727805   -1.405433
H       2.123902   -2.334931    1.187343
H       2.472568   -0.240890    2.515305
H       2.793399    0.881464   -0.038598
H      -0.241960   -0.175590    2.827866
