15

C       0.024841    1.537437   -0.023745
C      -0.025756    0.037451   -0.019646
C      -1.168699   -0.683316   -0.125598
C      -1.173021   -2.142325   -0.117282
O      -2.152165   -2.865306   -0.207332
N       0.107038   -2.671890    0.009181
N       1.276019   -2.002551    0.118093
C       1.202869   -0.711227    0.103376
O       2.347436    0.004185    0.209636
H       0.648504    1.901425   -0.846825
H      -0.975860    1.962415   -0.122977
H       0.479861    1.911941    0.899075
H      -2.137051   -0.205539   -0.221895
H       0.187262   -3.678827    0.023033
H       3.072299   -0.631511    0.283196
