16

C       0.097751   -3.757471    0.005006
C       0.064011   -2.549759   -0.003403
C       0.023613   -1.192083   -0.011725
C      -0.002777    0.020263   -0.027706
C      -0.087577    1.436147   -0.021365
C       0.286002    2.286835   -1.182747
N       1.142591    2.380749    0.000862
C       0.386033    3.249205    0.972748
C      -0.816933    2.276789    1.036169
H       0.131052   -4.818624    0.010307
H       0.767004    1.789562   -2.018611
H      -0.352375    3.128180   -1.450661
H       0.939793    3.325073    1.909346
H       0.193584    4.255593    0.586762
H      -1.804252    2.648796    0.749618
H      -0.893524    1.763843    1.995230
