23

C      -0.716483    1.260334    0.886777
C      -0.110502   -0.150261    0.711073
C       0.170573   -0.471624   -0.765433
C       1.416631    0.182275   -1.361728
O       2.594206   -0.528893   -1.021485
C       3.219433   -0.232995    0.215190
C       3.968301    1.113980    0.170307
C       2.370767   -0.327595    1.460333
C       1.052015   -0.310982    1.660546
H      -0.023761    2.036900    0.546820
H      -1.645601    1.356640    0.314957
H      -0.943924    1.463299    1.938043
H      -0.883638   -0.857488    1.044396
H       0.291871   -1.553078   -0.893160
H      -0.706397   -0.176594   -1.356463
H       1.362115    0.141987   -2.455133
H       1.489276    1.243509   -1.084671
H       3.982741   -1.019089    0.297030
H       3.275147    1.958362    0.113877
H       4.575073    1.246234    1.071473
H       4.628138    1.139487   -0.701398
H       2.991942   -0.395867    2.354046
H       0.734611   -0.365082    2.702397
