16

O       0.080622    1.261757    0.670550
C      -0.067653   -0.092857    0.387646
C      -1.512920   -0.424493    0.044352
N      -2.365404    0.512951    0.054857
N      -1.734441   -1.772699   -0.252885
C      -2.932005   -2.362520   -0.594605
N      -4.036353   -1.732072   -0.691495
C      -2.822432   -3.854190   -0.852040
O      -3.773993   -4.517830   -1.159981
H      -0.814353    1.633796    0.566955
H       0.572504   -0.393041   -0.460770
H       0.240294   -0.713537    1.247678
H      -3.303256    0.194147   -0.187611
H      -0.929029   -2.379880   -0.208316
H      -4.765780   -2.397445   -0.957442
H      -1.808825   -4.301209   -0.739722
