17

O       0.066258    1.284780   -0.249214
C       0.039390   -0.119705   -0.099416
C       0.242401   -0.520635    1.391069
O       0.899095    0.439548    2.188050
C      -1.308982   -0.574679    1.589386
C      -1.894487    0.595018    2.206452
C      -2.402949    1.567291    2.698413
C      -1.435004   -0.609232    0.001635
O      -2.386335    0.179492   -0.622899
H       0.350577    1.644788    0.605025
H       0.680703   -0.585318   -0.855839
H       0.687420   -1.515241    1.502209
H       1.849633    0.306207    2.105655
H      -1.661903   -1.479902    2.091196
H      -2.850561    2.420825    3.143864
H      -1.562776   -1.639674   -0.340988
H      -2.047344    1.085358   -0.566313
