19

C      -0.071329    1.543778   -0.068728
C      -0.015880    0.009756    0.000348
O       0.726519   -0.442120    1.132990
C       2.125227   -0.464078    0.942471
C       2.757669   -0.996621    2.228575
C       4.227969   -1.300866    2.052669
O       5.112621   -0.845034    2.729060
C      -1.358011   -0.565805    0.086120
C      -2.471954   -1.011865    0.135510
H       0.933891    1.963783   -0.162989
H      -0.658868    1.862684   -0.933836
H      -0.537121    1.938110    0.837414
H       0.463952   -0.371975   -0.916394
H       2.385175   -1.115552    0.090091
H       2.519916    0.538562    0.718287
H       2.627543   -0.294060    3.054544
H       2.246330   -1.934973    2.484128
H       4.452881   -2.011257    1.221870
H      -3.452660   -1.416832    0.183111
