14

O      -0.295505    1.263098   -0.405937
C      -0.150574   -0.071151   -0.049381
C      -0.387456   -0.554095    1.363923
C      -1.356924   -0.916359    0.271790
O      -2.584774   -0.191830    0.335605
C      -3.454345   -0.418598   -0.659209
O      -3.335862   -1.199357   -1.559665
C      -4.632518    0.437678   -0.483011
N      -5.577235    1.095606   -0.392979
H      -1.110282    1.600833   -0.017242
H       0.642813   -0.532211   -0.627264
H       0.234919   -1.340091    1.776684
H      -0.729171    0.182687    2.083993
H      -1.472500   -1.926544   -0.098217
