18

C      -0.310315    1.514805    0.045962
C      -0.007838    0.000743   -0.015487
C       0.742081   -0.400015   -1.263754
C       2.004455   -0.051575   -1.561961
C       2.932624    0.627446   -0.685230
C       2.908668    0.603403    0.661653
N       1.994893   -0.044253    1.478435
C       0.688841   -0.469418    1.262173
O       0.131768   -1.142448    2.104670
H       0.606394    2.108090    0.029560
H      -0.915191    1.804871   -0.817801
H      -0.869745    1.757199    0.954853
H      -0.959627   -0.534539    0.006416
H       0.181987   -0.984426   -1.988210
H       2.388791   -0.313826   -2.545363
H       3.766296    1.151838   -1.140537
H       3.695881    1.098204    1.221625
H       2.298584   -0.258189    2.418554
