23

C      -0.230996    1.517480   -0.080010
C       0.051386    0.025366    0.011240
O       0.752331   -0.421708   -1.170271
C       1.875732   -1.219326   -0.729188
C       2.303270   -2.124888   -1.862452
C       2.940731   -0.232483   -0.194483
C       2.303683    0.255826    1.145200
C       0.944517   -0.482538    1.163296
C       1.340707   -1.849752    0.570531
H       0.688329    2.101849   -0.169801
H      -0.843874    1.724410   -0.962237
H      -0.780719    1.860762    0.803293
H      -0.915074   -0.502381    0.058560
H       2.619598   -1.534573   -2.728161
H       3.141046   -2.758699   -1.555772
H       1.474564   -2.766470   -2.175573
H       3.903509   -0.728315   -0.033520
H       3.093327    0.575531   -0.914207
H       2.905701   -0.051436    2.005690
H       2.202210    1.341760    1.200060
H       0.440772   -0.489192    2.131568
H       0.495221   -2.520691    0.394298
H       2.108717   -2.371518    1.148838
