17

C      -0.394071    1.416856   -0.032962
C       0.011252   -0.049890   -0.048562
C       1.283612   -0.432764   -0.801831
O       1.732720   -0.287467   -1.892959
O       1.867469   -1.065398    0.265037
C       0.742852   -0.710469    1.170981
C       1.243991    0.201670    2.282234
C       0.099400   -1.906584    1.688773
C      -0.454400   -2.878718    2.126758
H       0.428127    2.071943    0.265070
H      -0.707760    1.715865   -1.037058
H      -1.234119    1.584012    0.647698
H      -0.824052   -0.673149   -0.378617
H       1.774758    1.060611    1.865948
H       0.406466    0.557119    2.888719
H       1.929226   -0.350053    2.930046
H      -0.936130   -3.744959    2.509449
