22

C       0.026785    1.514419   -0.048931
C      -0.056945   -0.020872   -0.014586
C       0.889278   -0.571831    1.063503
C      -1.515712   -0.544567    0.113405
C      -1.561471   -2.090461    0.216313
C      -2.291132    0.050926    1.305939
C      -2.306514   -0.234834   -1.156769
O      -1.854634    0.149827   -2.204006
H       1.046100    1.826076   -0.298453
H      -0.641210    1.940607   -0.800460
H      -0.215971    1.955738    0.923973
H       0.296551   -0.381459   -0.988153
H       0.570768   -0.284423    2.072125
H       0.969957   -1.661536    1.034320
H       1.895640   -0.166617    0.916336
H      -1.208921   -2.424406    1.195694
H      -2.585926   -2.460860    0.095487
H      -0.941157   -2.558248   -0.554539
H      -2.366145    1.139915    1.247876
H      -3.309411   -0.351568    1.343849
H      -1.803765   -0.205435    2.251079
H      -3.400192   -0.439025   -1.053026
