16

C       0.207153    1.563237   -0.050995
O       1.581733    1.413711    0.356300
C       1.458894   -0.030765    0.455511
C      -0.049825    0.040830    0.024016
N       0.340924   -0.718094   -1.169961
C       0.140034   -1.029532   -2.484764
C       1.394654   -1.348511   -2.986710
C       2.382195   -1.155153   -1.970796
C       1.676445   -0.764960   -0.854399
H      -0.361094    2.141095    0.687423
H       0.098275    2.014840   -1.042799
H       1.853756   -0.413812    1.396392
H      -0.909239   -0.334685    0.577643
H      -0.835846   -1.074035   -2.940522
H       1.582805   -1.720378   -3.983675
H       3.445902   -1.299753   -2.072971
