22

C       0.009459    1.553291   -0.151693
C      -0.114962    0.036534    0.027168
C       0.805010   -0.551556    1.104344
C       0.454427   -0.062294    2.513096
C       1.433812   -0.488197    3.610150
C       1.056621   -2.075480    0.935415
C       2.483681   -1.660648    0.536452
O       2.203844   -0.268040    0.778157
H       1.058963    1.829889   -0.286421
H      -0.546975    1.883441   -1.034062
H      -0.381653    2.107357    0.706636
H      -1.151668   -0.241973    0.259971
H       0.130658   -0.452274   -0.923394
H       0.404883    1.032269    2.496362
H      -0.559394   -0.413306    2.748412
H       1.454135   -1.573806    3.750843
H       2.446620   -0.159284    3.363746
H       1.153081   -0.042342    4.569048
H       0.986343   -2.665233    1.850180
H       0.461910   -2.555571    0.155997
H       3.289703   -2.032035    1.180559
H       2.755489   -1.848024   -0.510084
