17

O       0.089456    1.407993   -0.118865
C       0.039007    0.003788   -0.014110
C       0.792989   -0.509145    1.213552
O       0.091030   -0.279271    2.448212
C      -1.140379   -0.850719    2.574069
N      -1.594834   -1.270888    3.677709
C      -1.981856   -0.899415    1.344087
N      -2.293012    0.422163    0.750004
C      -1.411638   -0.496936    0.027032
H      -0.665806    1.728797    0.397190
H       0.540035   -0.403908   -0.900266
H       0.998787   -1.584046    1.110543
H       1.738546    0.025682    1.316961
H      -0.890579   -1.154320    4.410149
H      -2.776133   -1.636033    1.385513
H      -3.232083    0.420732    0.363796
H      -1.797000   -0.983938   -0.863673
