20

C      -0.285192    1.515679   -0.261793
C      -0.028584    0.046742   -0.007856
C       1.331325   -0.623153   -0.190257
C       2.573068    0.154434   -0.385771
C       3.194322    0.835743    0.584914
C       2.692717    0.869660    1.977219
N       1.465272    1.666580    2.249910
C       1.394516    0.195246    2.274260
C       0.676110   -0.554677    1.187139
H       0.579879    2.132768   -0.027944
H      -0.557942    1.664054   -1.313382
H      -1.117099    1.875666    0.352778
H      -0.842354   -0.585512   -0.357978
H       1.312598   -1.575889   -0.713271
H       3.004003    0.141677   -1.384260
H       4.115571    1.370233    0.370175
H       3.453473    0.877552    2.754539
H       1.499571    2.015159    3.205020
H       1.309263   -0.270883    3.252627
H       0.249049   -1.486730    1.544305
