16

C      -0.105686    1.611630   -0.041390
C       1.405289    1.307488    0.018517
C       1.219237    0.121011    1.005559
C      -0.052836    0.071708    0.008507
C       1.252989   -0.003864   -0.843634
O       1.853650   -0.142839   -2.119988
C       3.132227   -0.501932   -1.697918
N       3.361596   -0.827623   -0.483499
C       1.996772   -0.881143    0.103605
H      -0.531475    2.104575    0.837427
H      -0.493536    2.060398   -0.959652
H       2.252679    1.990214   -0.000617
H       1.135454    0.186684    2.089426
H      -0.856320   -0.663520    0.041103
H       3.869513   -0.473563   -2.492379
H       1.692967   -1.928216    0.218661
