15

O       0.060744    1.445983   -0.092851
C       0.010491    0.087235    0.045628
C      -0.210004   -0.794472   -1.160233
C      -1.165584   -0.905489    0.015210
N      -0.520244   -1.627837    1.129083
C      -0.078507   -2.859585    1.562324
C       1.226486   -2.634081    1.954473
N       1.656043   -1.353320    1.638176
C       0.572818   -0.795062    1.155942
H      -0.152064    1.847061    0.758163
H      -0.611810   -0.273072   -2.025890
H       0.469041   -1.610384   -1.387501
H      -2.234241   -0.746354   -0.019868
H      -0.714956   -3.723178    1.662263
H       1.877787   -3.321375    2.475694
