12

N       0.076758    1.440560    0.223106
C       0.033387    0.051322    0.073360
C      -1.113327   -0.660250   -0.074524
F      -2.305319   -0.106383   -0.175007
O      -1.157031   -1.981433   -0.143138
C       0.025825   -2.759362   -0.060535
O      -0.065066   -3.951074   -0.119408
C       1.216399   -1.931394    0.082429
N       1.209607   -0.637366    0.142576
H       0.977263    1.809244   -0.053613
H      -0.680275    1.926437   -0.238124
H       2.163062   -2.459626    0.136061
