21

O      -0.135626    1.484985    0.090791
C       0.007127    0.077933   -0.031421
C      -1.384982   -0.538294   -0.007452
C      -1.351103   -2.064695   -0.114832
C      -2.735724   -2.681246   -0.082612
O      -3.498415   -2.264928   -1.204525
C      -4.351721   -3.343348   -1.573601
C      -3.920701   -4.500124   -0.643760
O      -2.651745   -4.085122   -0.167175
H       0.740676    1.879537    0.062461
H       0.516434   -0.191753   -0.971382
H       0.611490   -0.334546    0.793950
H      -1.881411   -0.233536    0.922217
H      -1.973012   -0.121248   -0.831054
H      -0.871713   -2.381127   -1.048068
H      -0.776242   -2.497364    0.712691
H      -3.273217   -2.397627    0.844375
H      -5.405281   -3.072574   -1.431802
H      -4.189345   -3.573570   -2.632435
H      -4.629913   -4.624523    0.188326
H      -3.805051   -5.458004   -1.155344
