17

N       0.064060   -1.159669    0.030343
C      -0.019608   -0.003611    0.020754
C      -0.057575    1.418392    0.007020
C      -1.198752    2.125488    0.031534
C      -1.080015    3.629445    0.012607
C      -0.009558    3.989933   -1.054411
N       1.062130    3.650935   -0.047385
C       0.048063    4.011347    1.010586
C       1.265417    2.195054   -0.037984
H      -2.169588    1.643598    0.063643
H      -2.039939    4.147224    0.034020
H       0.010049    3.408534   -1.979288
H       0.032802    5.058756   -1.281341
H       0.102396    5.084620    1.212597
H       0.119541    3.449230    1.944782
H       1.884396    1.929279    0.826786
H       1.835290    1.911109   -0.930295
