15

O      -0.120746    1.331026    0.077519
N       0.036895   -0.059732    0.033199
C      -1.090808   -0.642651   -0.051116
C      -2.473138   -0.052396   -0.030658
C      -3.401521   -1.271522    0.066618
O      -4.597145   -1.255324    0.084495
N      -2.627917   -2.489572    0.139424
C      -1.961677   -2.774749   -1.152376
C      -1.204024   -2.127590   -0.048138
H       0.787068    1.640721    0.169626
H      -2.612283    0.611159    0.829487
H      -2.715859    0.544211   -0.915815
H      -1.813197   -3.829902   -1.357816
H      -2.240369   -2.174193   -2.014608
H      -0.474769   -2.701705    0.512154
