17

C       0.093227    1.150904   -0.330321
O      -0.205372    0.121718    0.621337
C      -1.264596   -0.646067    0.314091
C      -1.369934   -1.938684   -0.081405
N      -0.324040   -2.823867   -0.399478
C      -2.783984   -2.211985   -0.194804
C      -3.415746   -1.052357    0.136744
N      -4.753620   -0.704118    0.290513
O      -2.527835   -0.080099    0.448183
H       1.004761    1.641874    0.016676
H       0.255496    0.723533   -1.326950
H      -0.719547    1.883755   -0.378786
H       0.562509   -2.469898   -0.058577
H      -0.475193   -3.743828   -0.001379
H      -3.244686   -3.139776   -0.494515
H      -5.367682   -1.277213   -0.272401
H      -4.916033    0.277052    0.099803
