13

C      -0.041466    1.513354    0.000151
C       0.012515   -0.006661    0.006570
C       1.341878   -0.706426   -0.236238
C       0.738221   -0.722189    1.136622
C      -1.164446   -0.655323   -0.518025
N      -2.114562   -1.161899   -0.941877
H       0.885628    1.921191    0.412773
H      -0.162202    1.898089   -1.016677
H      -0.875906    1.879539    0.605248
H       1.331742   -1.624401   -0.811169
H       2.194309   -0.062580   -0.422409
H       1.171595   -0.089161    1.902964
H       0.315520   -1.650952    1.500019
