19

C      -0.683807    1.318572   -0.044494
C       0.091269    0.002095   -0.044406
C       1.259310   -0.060736   -1.064100
C       2.213396   -1.040565   -0.424345
C       1.910749   -1.261605    0.853784
C       0.724206   -0.441029    1.315974
C       1.172085    0.702844    2.244652
H      -0.041334    2.169528    0.204651
H      -1.115248    1.511821   -1.032642
H      -1.508888    1.300909    0.676079
H      -0.605092   -0.798436   -0.323991
H       0.920213   -0.371424   -2.059343
H       1.738099    0.921175   -1.199004
H       3.054249   -1.474990   -0.954515
H       2.471458   -1.899113    1.530040
H       0.006991   -1.055914    1.875601
H       1.879174    1.372059    1.743211
H       0.321553    1.299809    2.588733
H       1.674736    0.300150    3.130495
