23

C       0.053849    1.594503   -0.119821
C       1.586055    1.528571   -0.127216
C       2.108939    0.923785    1.149663
C       1.538718    1.165596    2.547853
C       0.678515    0.032191    3.132684
C      -0.730870   -0.074268    2.532090
C      -0.813151   -0.660943    1.115453
C       0.008031    0.030666    0.025269
C       1.543445    0.011307    0.091459
H      -0.391977    2.182198    0.689066
H      -0.374235    1.937947   -1.063712
H       2.225539    2.101226   -0.788838
H       3.196315    0.879637    1.138709
H       2.382414    1.343975    3.224356
H       0.952578    2.094097    2.563234
H       1.205620   -0.924604    3.018925
H       0.579294    0.202200    4.212084
H      -1.349754   -0.698813    3.188273
H      -1.195506    0.921182    2.547713
H      -0.499603   -1.714479    1.149079
H      -1.868514   -0.672738    0.810600
H      -0.297322   -0.387885   -0.939621
H       2.158124   -0.757203   -0.365223
