17

O      -0.011219   -0.037907    0.094816
C      -0.027843    1.172523    0.021679
C      -1.294837    1.952791   -0.003606
C      -1.281220    3.293228   -0.054393
C       0.039186    4.042154   -0.102695
C       1.002455    3.212923   -0.989688
C       1.257508    2.021260   -0.035968
C       1.423598    2.764024    1.290088
C       0.746637    3.909396    1.256874
H      -2.212878    1.375899    0.046878
H      -2.209291    3.859234   -0.044134
H      -0.100288    5.074252   -0.431017
H       0.557066    2.926619   -1.946166
H       1.933829    3.756542   -1.172465
H       2.093993    1.373431   -0.302863
H       1.963374    2.350248    2.132245
H       0.625118    4.621067    2.063575
