12

N       0.209221    1.406994    0.099341
C       0.000049    0.047849    0.014859
C      -1.096975   -0.714242   -0.000819
N      -2.438919   -0.385743   -0.018839
O      -0.658921   -2.070606    0.042415
C       0.689875   -2.064518    0.046952
O       1.413926   -3.008315    0.051482
O       1.119329   -0.750743    0.042492
H       0.949172    1.736027   -0.509714
H      -0.648312    1.923195   -0.050075
H      -2.933647   -0.645460    0.829167
H      -2.937278   -0.769739   -0.815502
