23

C       0.056934    1.701512   -0.155438
C      -0.255549    0.222313   -0.408186
C       0.857849   -0.495810   -1.159803
C       2.206466   -0.779066   -0.437371
C       2.257039   -2.154669   -1.152706
C       0.749052   -2.017690   -1.473584
C      -0.272706   -2.926079   -0.749688
O      -0.809324   -3.399876   -2.000974
C       0.101403   -2.572750   -2.752312
H       0.976757    1.817926    0.427776
H       0.192758    2.243233   -1.098054
H      -0.751353    2.190167    0.397088
H      -0.429794   -0.280235    0.552186
H      -1.193714    0.136076   -0.972876
H       1.054044    0.031765   -2.103426
H       3.033960   -0.087219   -0.609226
H       2.064054   -0.886589    0.643222
H       2.864913   -2.124063   -2.062767
H       2.561101   -3.024756   -0.564063
H       0.164700   -3.739842   -0.155257
H      -1.036581   -2.418756   -0.147401
H      -0.428195   -1.833664   -3.370204
H       0.762235   -3.166390   -3.399150
