19

C       0.113981    1.266432   -0.992012
C      -0.146154    0.577077    0.346699
O      -0.192896    1.506026    1.427818
C      -1.432289   -0.233848    0.309539
C      -1.458932   -1.698371   -0.052466
C      -0.215925   -2.374661   -0.335675
N       0.770612   -2.936802   -0.559779
N      -1.775658   -1.231489    1.302952
C      -0.864332   -1.519488    2.409952
H       1.003975    1.896247   -0.918263
H       0.270060    0.532719   -1.788618
H      -0.734339    1.901124   -1.277608
H       0.699939   -0.074334    0.580320
H      -0.880380    2.153966    1.235142
H      -2.293855    0.346861   -0.028466
H      -2.302054   -2.097380   -0.610870
H       0.178408   -1.690177    2.114539
H      -0.894880   -0.673963    3.099976
H      -1.223320   -2.415144    2.923938
