20

C      -0.650751    0.956178   -0.397293
C       0.001450   -0.348926    0.062496
N       0.464028   -1.160013   -1.052255
C       1.760112   -1.520793   -1.209383
O       2.672562   -1.185613   -0.474520
C       2.055503   -2.373279   -2.460093
C       1.039636   -3.443315   -2.843287
C       1.604095   -4.777643   -3.276601
O      -0.157116   -3.235791   -2.820550
H       0.061428    1.570699   -0.955712
H      -1.513609    0.763707   -1.044042
H      -1.000955    1.531839    0.465369
H       0.877869   -0.148448    0.682049
H      -0.707446   -0.929539    0.667011
H      -0.205927   -1.588712   -1.679229
H       2.112890   -1.684674   -3.314887
H       3.051903   -2.796153   -2.325998
H       2.339274   -4.639702   -4.077422
H       2.137856   -5.239130   -2.437308
H       0.802336   -5.436367   -3.611591
