18

C       0.075985    1.504457    0.053983
C      -0.022067    0.011948    0.026575
C       0.093448   -0.785567   -1.037288
C      -0.044282   -2.248255   -0.698027
N       1.201418   -3.014586   -0.939058
C       1.659221   -3.278477    0.211569
O       0.986400   -2.895033    1.324837
C      -0.225148   -2.247572    0.852762
C      -0.296389   -0.775124    1.292964
H       0.883766    1.832847    0.720298
H       0.265829    1.915961   -0.940631
H      -0.846980    1.955643    0.440317
H       0.291422   -0.452490   -2.049624
H      -0.863673   -2.730055   -1.242667
H       2.584253   -3.807473    0.415178
H      -1.065041   -2.843506    1.216452
H       0.433088   -0.569864    2.085410
H      -1.282861   -0.530059    1.708616
