25

C      -0.352734    1.534630    0.023905
C      -0.047133    0.028577    0.003701
C       0.645622   -0.344154   -1.320164
C       0.727100   -1.837763   -1.663127
C       1.638425   -2.728167   -0.834547
C       2.881386   -2.234383   -0.128194
C       1.700412   -2.735802    0.672797
C       0.860569   -1.854208    1.582371
C       0.751821   -0.357241    1.262381
H       0.572821    2.122321   -0.011171
H      -0.963804    1.830119   -0.835319
H      -0.891082    1.821147    0.933341
H      -1.007322   -0.509099    0.040461
H       0.093759    0.140361   -2.135555
H       1.649104    0.102962   -1.341362
H      -0.288947   -2.258203   -1.638483
H       1.051898   -1.918686   -2.709183
H       1.739520   -3.715517   -1.280550
H       3.779561   -2.841463   -0.168204
H       3.078766   -1.168616   -0.130906
H       1.837389   -3.727568    1.098984
H      -0.154242   -2.274805    1.636997
H       1.270137   -1.945565    2.597350
H       1.753839    0.090059    1.205637
H       0.268968    0.118768    2.125188
