20

C       0.593232    1.334077   -0.169661
C       0.102165   -0.064918    0.111502
N       1.132901   -1.083123    0.379497
C       0.184715   -0.700756    1.458521
C       0.740576   -0.002153    2.697120
C       2.209524   -0.377634    3.014060
O       3.087084    0.059357    1.990265
C       2.626053    0.214141    4.286112
C       2.929786    0.697361    5.343190
H       1.472722    1.564089    0.436223
H       0.871682    1.436585   -1.223582
H      -0.187435    2.071556    0.046295
H      -0.735696   -0.387219   -0.504830
H       0.887226   -1.983959   -0.018074
H      -0.587626   -1.436584    1.670672
H       0.694951    1.085736    2.590778
H       0.115963   -0.262542    3.557330
H       2.264596   -1.475225    3.119663
H       2.756893   -0.383986    1.186878
H       3.215751    1.120693    6.274055
