20

C      -0.017330    1.506865    0.062758
O       1.420652    1.476750   -0.128417
C       1.389510    0.076778   -0.521764
C       2.468124   -0.795525    0.119193
C       2.077747   -1.308739    1.512650
C       0.692963   -1.986169    1.478624
C      -0.377481   -0.965537    1.109446
N      -1.092983   -0.963506   -0.191094
C      -0.028709   -0.011775    0.037090
H      -0.302558    2.005492    0.995277
H      -0.532030    1.982484   -0.783541
H       1.433432    0.003839   -1.619564
H       2.654831   -1.654349   -0.539202
H       3.398949   -0.218645    0.152587
H       2.837385   -2.009734    1.874282
H       2.051445   -0.473722    2.223270
H       0.705947   -2.808662    0.750248
H       0.460347   -2.437439    2.447735
H      -1.005594   -0.617732    1.926764
H      -0.774625   -1.726390   -0.786494
