14

C       0.036105    1.497855    0.017726
C      -0.019524   -0.000413    0.009730
C      -1.182088   -0.693641   -0.147622
C      -1.205162   -2.139260   -0.151579
O      -2.151868   -2.886110   -0.279853
N       0.103749   -2.677856    0.024873
C       1.189539   -1.895761    0.172008
F       2.312776   -2.571993    0.323380
N       1.209767   -0.617682    0.175451
H       0.699277    1.850459   -0.779175
H      -0.952041    1.941289   -0.115769
H       0.463784    1.849886    0.962354
H      -2.131094   -0.190338   -0.275471
H       0.190288   -3.685764    0.035989
