15

C      -0.002877    1.601850    0.054548
C       0.038998    0.109959    0.010167
C      -0.000167   -0.727544   -1.101418
N       0.065060   -2.007193   -0.631570
N       0.144442   -2.066374    0.714254
C       0.128261   -0.794697    1.090690
O       0.192432   -0.432816    2.389329
C      -0.088310   -0.429932   -2.476439
C      -0.163582   -0.179240   -3.652368
H       0.894449    2.014092    0.529203
H      -0.073669    2.015335   -0.954536
H      -0.862295    1.961744    0.631013
H       0.059249   -2.855086   -1.170740
H       0.246764   -1.243874    2.910124
H      -0.229959    0.045611   -4.688128
