18

C       0.078519    1.287173    0.323909
N      -0.032792   -0.000602   -0.343486
C       1.196778   -0.781364   -0.349158
C      -1.181074   -0.745132   -0.103108
N      -1.248679   -2.047021    0.003915
C      -2.603091   -2.349393    0.137410
C      -3.331431   -1.200789    0.125975
O      -4.646110   -0.877249    0.231628
N      -2.429160   -0.164951   -0.018851
H       0.952135    1.813463   -0.069911
H      -0.793543    1.914542    0.117607
H       0.189898    1.202123    1.418037
H       1.499328   -1.105578    0.658941
H       1.050797   -1.674959   -0.955693
H       1.997034   -0.172208   -0.779381
H      -2.948387   -3.365399    0.247626
H      -5.146769   -1.690576    0.346707
H      -2.680201    0.798918   -0.151707
