17

O       0.025528    1.157481   -0.535752
C      -0.134771    0.061471    0.349845
C      -1.479825   -0.622999    0.181244
C      -1.817144   -1.279771   -1.110898
O      -0.795751   -1.304236   -2.074785
C      -1.558755   -2.159064    0.120108
O      -0.394195   -2.918137    0.127320
C      -2.727791   -2.824157    0.739036
O      -3.807737   -2.295067    0.870865
H       0.015329    0.793125   -1.427919
H       0.673621   -0.672255    0.240309
H      -0.062636    0.472118    1.360766
H      -2.329835   -0.166014    0.678646
H      -2.833468   -1.218052   -1.490161
H      -1.087768   -1.841107   -2.819017
H       0.024551   -2.797181   -0.736344
H      -2.531166   -3.868387    1.062537
