17

O      -0.064185   -0.021391    0.168050
C      -0.049620    1.163287    0.025639
C      -1.094510    2.297358    0.087441
C       0.019618    3.011092    0.940694
C       1.023286    2.265720   -0.016169
C       0.671869    2.951295   -1.349655
O       0.618406    2.086410   -2.502815
C      -0.829485    2.154536   -2.553738
C      -0.884021    3.003172   -1.266112
H      -2.106713    2.133566    0.450811
H       0.028884    4.103048    0.896128
H       0.072601    2.665747    1.973797
H       2.066306    2.084570    0.232040
H       1.244130    3.863881   -1.541618
H      -1.170834    2.675085   -3.456133
H      -1.290041    1.161013   -2.510919
H      -1.387477    3.967867   -1.331696
