16

C      -0.276750    1.543756   -0.083214
C       0.090569    0.065659    0.066820
O      -1.041256   -0.720111    0.386708
C       0.763129   -0.482183   -1.203439
C       0.584927   -1.900682   -1.566388
O      -0.191282   -0.883703   -2.211630
C       1.929266    0.223375   -1.674359
C       2.912054    0.821132   -2.023603
H       0.611319    2.159480   -0.246933
H      -0.950719    1.683940   -0.935551
H      -0.785332    1.885605    0.821253
H       0.790454   -0.059535    0.900965
H      -1.589142   -0.734243   -0.409762
H       1.330391   -2.379215   -2.197250
H       0.032626   -2.541315   -0.884629
H       3.778212    1.345739   -2.344616
