17

C      -0.126605    1.615120    0.331728
C       0.064421    0.136095    0.014645
C       0.825756   -0.238242   -1.293049
N       1.857309   -0.865643   -0.400343
C       1.130334   -0.625644    0.695088
N       1.158506   -1.022479    1.947027
H       1.761390   -1.774132    2.249478
H       0.177355   -0.952505    2.308103
C      -1.329810   -0.647783    0.333072
O      -2.010652   -0.916373   -0.646384
O      -1.471583   -0.817156    1.567407
H       0.803048    2.185039    0.222737
H      -0.871396    2.033780   -0.351367
H      -0.499307    1.731374    1.351581
H       0.287520   -0.965077   -1.902353
H       1.228048    0.578572   -1.895143
H       2.499576   -1.625181   -0.582802
