17

C       0.022946    1.508587    0.358468
C       0.058669    0.012362    0.157829
O      -1.167142   -0.573695   -0.195807
C       1.321031   -0.653654   -0.363380
C       0.882340   -0.866470    1.057183
O       1.699297   -0.294352    2.048194
C       1.128123   -0.142621    3.265293
N       1.789324    0.375376    4.206007
H       0.974090    1.879215    0.747006
H      -0.180234    2.020238   -0.589717
H      -0.770013    1.777688    1.063666
H      -1.370041   -0.312591   -1.101378
H       1.216234   -1.489440   -1.045529
H       2.194648   -0.029176   -0.514333
H       0.458571   -1.832753    1.319120
H       0.094543   -0.510415    3.310078
H       1.221936    0.407868    5.050522
