16

C       0.013328    1.477809   -0.081812
C       0.007808   -0.012868    0.030827
N      -0.024645   -0.782034   -1.060241
N      -0.019720   -2.038797   -0.608397
C       0.015073   -2.102782    0.755490
C       0.026583   -3.327004    1.460982
N       0.036009   -4.330583    2.040297
C       0.034149   -0.792502    1.214685
C       0.073541   -0.322100    2.632642
H       0.912175    1.909873    0.372179
H      -0.017587    1.771247   -1.132691
H      -0.850119    1.920483    0.427233
H      -0.041462   -2.807436   -1.257864
H       0.963254    0.287708    2.826115
H      -0.798042    0.297635    2.871733
H       0.086800   -1.164530    3.328360
