21

C      -0.098331    1.516906    0.085750
C      -0.046105    0.002184    0.175552
O      -1.321902   -0.511001   -0.202198
C      -1.398959   -1.885782   -0.153828
C      -0.884229   -2.822379   -1.256599
C      -2.156536   -3.707587   -1.059612
C      -2.659476   -2.746525    0.025675
C      -1.624967   -2.623354    1.123490
O      -0.780330   -3.672511    1.506542
H       0.866327    1.948417    0.369304
H      -0.334343    1.833599   -0.934170
H      -0.867409    1.915260    0.753823
H       0.732927   -0.399268   -0.490180
H       0.197644   -0.324682    1.197551
H      -0.877456   -2.325109   -2.228857
H       0.082079   -3.299537   -1.078616
H      -2.797690   -3.725119   -1.942648
H      -1.974158   -4.734117   -0.731094
H      -3.688748   -2.446278    0.184160
H      -1.939302   -1.965558    1.935107
H      -1.313837   -4.334923    1.958636
