18

C      -0.043634    1.514885   -0.010407
C       0.038129    0.015323    0.014641
C      -0.852483   -0.860820    0.850371
C       0.631837   -0.955302    1.057185
C       1.325451   -1.773452   -0.066567
C       0.709677   -0.821540   -1.099742
O      -0.070159   -1.928513   -1.669671
C       0.502102   -2.832387   -0.777549
N       0.353048   -4.072918   -0.680326
H       0.911759    1.968274   -0.298494
H      -0.803421    1.857305   -0.723357
H      -0.314008    1.908132    0.974668
H      -1.381786   -0.330004    1.635763
H      -1.415651   -1.677789    0.411345
H       1.097457   -0.736843    2.009917
H       2.395526   -1.936641    0.035643
H       1.273425   -0.288418   -1.864646
H      -0.302507   -4.424818   -1.380930
