19

C      -0.378717    0.787896   -1.228021
C       0.223798   -0.007166   -0.077342
O       1.325717   -0.810924   -0.514577
C       1.000237   -1.976985   -1.094882
N       1.873379   -2.656643   -1.703079
C       1.402790   -3.870482   -2.330624
C       0.597746   -3.564414   -3.610137
N       0.842323   -4.401998   -4.656625
O      -0.234043   -2.679768   -3.652555
H       0.377915    1.432659   -1.683625
H      -0.767411    0.117928   -2.001084
H      -1.199423    1.415306   -0.865377
H       0.637196    0.652916    0.689323
H      -0.532609   -0.644989    0.400215
H      -0.051280   -2.268329   -0.972155
H       2.259390   -4.514043   -2.555242
H       0.723388   -4.457664   -1.690451
H       1.639421   -5.013709   -4.667183
H       0.365893   -4.223324   -5.526233
