20

C      -0.356866    1.486924   -0.068506
C      -0.087684   -0.006208   -0.033089
C      -0.712339   -0.810833    1.091273
C       0.763754   -0.529517    1.088646
O       1.625755   -1.632207    0.916573
C       2.566082   -1.661611   -0.081044
N       2.602070   -1.189359   -1.245700
C       1.541640   -0.452183   -1.911651
C       0.114983   -0.667197   -1.386694
H       0.418797    2.025206   -0.624033
H      -1.318600    1.694224   -0.551773
H      -0.395502    1.910706    0.939725
H      -1.330706   -0.302515    1.823667
H      -1.006794   -1.832187    0.876188
H       1.159613    0.176357    1.815769
H       3.399246   -2.273530    0.266940
H       1.799412    0.615877   -1.889088
H       1.584853   -0.737425   -2.969964
H      -0.076210   -1.743546   -1.325399
H      -0.606086   -0.262850   -2.108413
