16

C      -0.123232    1.221901   -0.495417
C      -0.063307   -0.160038   -0.041661
C      -0.000921   -1.306679    0.320577
C       0.045187   -2.692435    0.783136
N      -1.255037   -3.357409    0.736592
C      -1.481720   -4.341925   -0.206958
N      -2.819233   -4.700616   -0.325031
O      -0.603945   -4.847438   -0.880536
H       0.753268    1.477082   -1.101062
H      -1.011630    1.397317   -1.112074
H      -0.160096    1.921062    0.347252
H       0.708954   -3.293220    0.153747
H       0.441610   -2.728784    1.806063
H      -2.043798   -2.788431    1.003763
H      -3.397855   -4.621273    0.498040
H      -2.939516   -5.568205   -0.825650
