16

C      -0.132283    1.336674   -0.094063
O      -0.161624   -0.066059   -0.179951
C       0.830318   -0.581519   -1.044787
C       0.760219   -2.083276   -1.039129
C      -0.233289   -2.793521   -1.920250
C       1.238158   -2.854077   -2.244189
H       0.834054    1.705900    0.286812
H      -0.314948    1.812546   -1.071567
H      -0.922151    1.640785    0.597352
H       0.680842   -0.200700   -2.071335
H       1.829034   -0.239585   -0.719804
H       0.951943   -2.529471   -0.067721
H      -0.714841   -3.685247   -1.535298
H      -0.868942   -2.184005   -2.553840
H       1.593013   -2.289792   -3.100709
H       1.768926   -3.784804   -2.078762
