21

C      -0.583540    1.487072    0.148117
C       0.194097    0.195466   -0.062212
O       1.176582    0.472425   -1.065460
C       2.290370   -0.405669   -1.085538
C       2.696548   -0.855470    0.330001
O       3.960504   -1.461530    0.356176
C       1.549319   -1.694396    0.919491
C       0.873654   -0.328121    1.216484
C       2.304235    0.276702    1.325723
H       0.055293    2.257039    0.591773
H      -0.956132    1.862254   -0.808769
H      -1.437346    1.316634    0.811060
H      -0.494886   -0.583416   -0.432913
H       2.096682   -1.293360   -1.709214
H       3.109490    0.159337   -1.550962
H       4.601780   -0.850300   -0.023769
H       1.034838   -2.396937    0.256114
H       1.865098   -2.205982    1.832048
H       0.206021   -0.262128    2.077300
H       2.744619    0.097176    2.308906
H       2.456478    1.314188    1.019104
