19

C       0.384208    0.733337    0.884790
C      -0.339532    0.355849   -0.409889
C       0.569841   -0.083784   -1.511501
C       1.917297   -0.183798   -1.536415
O       2.289502   -0.641639   -2.794708
C       1.115141   -0.781397   -3.445395
N       1.165110   -1.166545   -4.754128
C       2.310242   -1.892182   -5.279559
N       0.058049   -0.479393   -2.751898
H       0.952864   -0.113748    1.282453
H       1.083995    1.559567    0.721243
H      -0.329544    1.046739    1.651609
H      -1.064434   -0.445532   -0.216921
H      -0.936234    1.204429   -0.768865
H       2.719401   -0.008897   -0.843090
H       0.258518   -1.438668   -5.101772
H       2.193892   -1.990927   -6.360836
H       3.222835   -1.325318   -5.084540
H       2.429828   -2.894793   -4.844281
