24

C       0.097443    1.543820    0.096649
C      -0.032132    0.019959    0.003488
C      -1.478059   -0.506015   -0.079083
C      -2.190466   -0.029294   -1.353345
C      -1.488237   -2.041954    0.035674
C      -2.867282   -2.673121    0.275232
C      -2.790497   -4.197730    0.373705
O      -3.507098   -2.116935    1.424365
H       1.142761    1.838712    0.233566
H      -0.266407    2.044785   -0.805412
H      -0.472190    1.936660    0.946621
H       0.533185   -0.343225   -0.866790
H       0.450388   -0.427530    0.882394
H      -2.031215   -0.115694    0.785478
H      -2.222269    1.062109   -1.413682
H      -1.675695   -0.397675   -2.249791
H      -3.225208   -0.381312   -1.393812
H      -1.048876   -2.483995   -0.869680
H      -0.832476   -2.343989    0.866812
H      -3.537157   -2.412027   -0.552111
H      -2.121823   -4.501478    1.189322
H      -3.781325   -4.615905    0.570906
H      -2.404262   -4.637011   -0.551919
H      -2.973766   -2.348980    2.193237
