17

C       0.629631    1.450252    0.199145
O       1.102831    0.251811   -0.419532
C      -0.223672    0.258365    0.104620
C      -0.478970   -0.606855    1.293359
C      -0.019624   -2.100547    1.409961
C      -0.142930   -1.655350    2.895059
O       0.344901   -0.335950    2.478077
C      -1.658251   -1.397562    3.018455
C      -1.892452   -0.680632    1.918707
H       1.086130    1.687003    1.156731
H       0.456212    2.289102   -0.473182
H      -1.007965    0.231385   -0.653686
H      -0.681952   -2.884150    1.037834
H       1.014641   -2.230793    1.086370
H       0.411769   -2.103888    3.717175
H      -2.322278   -1.735468    3.800089
H      -2.802215   -0.249780    1.527071
