19

C      -0.083256    1.436668    0.012133
C       1.303231    0.843593    0.026069
C       1.951986    0.617909    1.381539
N       1.118033    1.008426    2.540470
C       1.181397   -0.413494    2.119793
C       0.023654   -0.850692    1.250639
C      -0.436338   -2.262028    1.304624
N      -1.290372   -1.182827    1.827581
C       0.086205   -0.061525   -0.041549
H      -0.446235    1.884834    0.928203
H      -0.405351    1.921264   -0.903370
H       1.958993    0.982061   -0.825238
H       3.030283    0.696687    1.465614
H       1.714947    1.138732    3.354123
H       1.643891   -1.134191    2.788548
H      -0.809845   -2.742310    0.403547
H       0.053568   -2.938073    2.002392
H      -1.237821   -1.150051    2.843175
H      -0.186327   -0.575516   -0.956693
