19

C       0.199752    1.383539    0.418529
C      -0.262661    0.067541   -0.216297
C       0.651051   -0.390805   -1.340651
N       0.624901    0.484980   -2.479939
C       1.959457   -1.042669   -1.006956
C       0.822350   -1.916718   -1.534323
O       0.154639   -2.769855   -0.654875
C       0.917307   -2.397437   -2.893383
N       0.987084   -2.773265   -3.986215
H       1.180572    1.269652    0.892489
H       0.282572    2.170049   -0.335316
H      -0.507263    1.710190    1.186824
H      -0.331046   -0.722644    0.534528
H      -1.274188    0.188776   -0.626174
H       1.302829    0.215353   -3.184553
H      -0.288992    0.464437   -2.924531
H       2.816357   -0.869172   -1.649794
H       2.196544   -1.188032    0.041743
H       0.732703   -3.515429   -0.453289
