19

O      -0.020622    1.396208    0.031709
C      -0.036768   -0.019791    0.027295
C      -1.443805   -0.497169    0.007908
C      -2.603008    0.164020    0.013558
C      -3.649754   -0.970224   -0.012673
O      -5.005470   -0.666991    0.053307
C      -3.043292   -1.945006    1.038924
C      -1.884246   -1.971767   -0.019200
C      -3.015570   -1.914352   -1.101967
H       0.895823    1.684271    0.067387
H       0.500555   -0.426689   -0.849070
H       0.477540   -0.432077    0.914649
H      -2.799644    1.225613    0.044664
H      -5.199637    0.001213   -0.612478
H      -2.818930   -1.539866    2.027896
H      -3.587173   -2.891982    1.109452
H      -1.122191   -2.749689   -0.021225
H      -3.557660   -2.858210   -1.215815
H      -2.763364   -1.478163   -2.071744
