14

O      -0.121767    0.003855    0.053862
C       0.012466    1.188827   -0.134943
C       1.281860    1.912891    0.055532
C       1.330957    3.369736    0.356812
N       1.741048    2.967109   -0.981153
C       3.132667    2.391893   -0.832760
C       2.665282    1.283037    0.144631
H      -0.828254    1.829493   -0.484410
H       0.389993    3.912339    0.371076
H       2.074516    3.724053    1.069252
H       3.478253    2.018653   -1.797429
H       3.852066    3.122443   -0.449462
H       3.119655    1.249634    1.137869
H       2.690669    0.283756   -0.290782
