15

N       0.160816   -1.142646   -0.619320
C       0.169355   -0.115887   -0.091255
C       0.164298    1.190420    0.583458
C       1.423617    1.916339    0.445165
C       2.462428    2.514690    0.333697
C       3.700268    3.224994    0.206331
C       4.504675    3.128828   -1.081749
C       3.809403    4.411337   -0.740507
H      -0.670732    1.777788    0.179358
H      -0.068021    1.024300    1.643532
H       4.280678    3.295176    1.121455
H       5.583079    3.079012   -0.984737
H       4.091068    2.518175   -1.875105
H       2.921697    4.675810   -1.302320
H       4.404394    5.253843   -0.407070
