17

N      -0.035485    1.383539   -0.004860
C      -0.005369    0.117351   -0.072312
N      -1.153655   -0.673208   -0.000367
C      -1.044562   -2.129977    0.015513
C      -1.098854   -2.713811    1.440686
C      -1.131993   -4.225832    1.412301
O      -0.306052   -4.939247    1.919554
C      -2.420267   -0.112360    0.084754
O      -3.425279   -0.779625    0.185826
H       0.901141    1.768950   -0.096778
H       0.896850   -0.492314   -0.195845
H      -1.872073   -2.527640   -0.577105
H      -0.107568   -2.406899   -0.475607
H      -0.244625   -2.386788    2.039361
H      -2.026113   -2.362126    1.909233
H      -2.002793   -4.655157    0.864405
H      -2.395094    0.984381    0.045132
