21

C       0.394937    1.541486   -0.258311
C       0.136773    0.079751    0.037797
O       0.945969   -0.818776   -0.769749
C       1.262251   -1.636699    0.365821
C       0.624806   -0.600142    1.336345
C       2.044696   -0.200571    1.823354
C       2.663151   -1.373918    0.980447
C       3.126895   -2.544031    1.842778
O       3.620779   -1.030409    0.007258
H       1.450286    1.797669   -0.139842
H       0.110819    1.764016   -1.291765
H      -0.203482    2.177501    0.403270
H      -0.928772   -0.142237   -0.128878
H       0.950656   -2.678435    0.233327
H      -0.119603   -0.839282    2.094109
H       2.380387    0.787026    1.502698
H       2.196534   -0.288321    2.902392
H       2.341537   -2.870777    2.532576
H       3.407263   -3.391702    1.209645
H       3.995627   -2.257043    2.448587
H       4.474312   -0.946754    0.445862
