18

C       0.429888    0.861503   -0.825971
C      -0.102580    0.144301    0.392554
O       0.387839    0.276615    1.492378
C      -1.323516   -0.748278    0.234166
C      -2.153338   -0.888422    1.493616
N      -1.978327   -0.716185   -1.080060
C      -1.266465   -1.947148   -0.692546
C      -0.117871   -2.357079   -1.452412
C       0.831568   -2.758473   -2.071486
H       1.293271    1.460287   -0.534097
H       0.708355    0.148105   -1.606233
H      -0.351661    1.496720   -1.254139
H      -2.603053    0.072405    1.765326
H      -2.956619   -1.618619    1.354557
H      -1.523863   -1.203141    2.327911
H      -2.981836   -0.851012   -0.977980
H      -1.874118   -2.781932   -0.346485
H       1.673997   -3.102217   -2.619467
