19

C      -0.102768    1.418669    0.469956
C      -0.113973   -0.040289   -0.009192
C      -1.568509   -0.479492   -0.262846
C       1.045727   -0.293605   -1.034112
O       1.990113   -0.209484    0.093981
C       0.906290   -0.899888    0.815241
C       0.983052   -2.278423    0.110976
O      -0.058822   -2.565640   -0.832931
C       1.087519   -1.824183   -1.274612
H       0.906489    1.780894    0.664800
H      -0.569161    2.062066   -0.284608
H      -0.695182    1.514078    1.386903
H      -1.730513   -0.784261   -1.298116
H      -1.855579   -1.327974    0.360520
H      -2.253304    0.345694   -0.043979
H       1.281203    0.380366   -1.858440
H       0.997761   -0.852052    1.900850
H       1.501588   -3.127407    0.541789
H       1.696829   -2.278494   -2.047656
