18

C      -0.030336    1.532394    0.012061
C       0.010962    0.026046   -0.002483
C      -0.001176   -0.674739   -1.205146
C       0.055025   -2.067417   -1.237631
O       0.041313   -2.675689   -2.465359
C       0.122257   -2.772785   -0.040104
C       0.125718   -2.083844    1.169740
C       0.072418   -0.689759    1.210474
N       0.150905   -0.000519    2.436258
H       0.811021    1.948229    0.579191
H       0.007418    1.937975   -1.001567
H      -0.948778    1.914184    0.480525
H      -0.049659   -0.137590   -2.146703
H       0.090830   -3.628236   -2.338511
H       0.165578   -3.858862   -0.044830
H       0.174332   -2.642055    2.100662
H      -0.079002   -0.580334    3.231996
H      -0.394044    0.850701    2.464264
