21

O      -0.668044    0.815239    0.742471
C      -0.142263    1.133213   -0.292372
C       1.261330    1.677668   -0.421123
C       1.292776    3.022570   -1.148054
O       2.639154    3.335609   -1.429230
C       2.805975    4.559356   -2.099134
C       2.679707    5.889303   -1.300684
C       3.932174    6.395325   -2.069823
C       4.269446    4.918333   -2.416726
H      -0.685950    1.034299   -1.262130
H       1.715296    1.751193    0.569596
H       1.845452    0.965071   -1.020197
H       0.708608    2.965754   -2.083644
H       0.829730    3.802919   -0.524020
H       2.176760    4.585234   -3.003351
H       1.754092    6.463468   -1.382650
H       2.903485    5.711901   -0.244477
H       3.660327    6.972566   -2.957538
H       4.674341    6.960416   -1.503539
H       4.926912    4.469412   -1.667088
H       4.650499    4.685428   -3.413100
