13

N      -0.066431    1.042334    1.030220
C       0.021535    0.070192    0.196003
C      -1.231668   -0.466700   -0.324020
C      -1.404165   -1.465924   -1.193037
C      -0.431828   -2.325285   -1.889583
O      -0.793572   -3.182892   -2.645192
O       0.954427   -2.231165   -1.745755
N       1.752388   -1.396131   -0.989455
C       1.334426   -0.472982   -0.212535
H       0.860050    1.350144    1.337902
H      -2.106338    0.039410    0.072391
H      -2.413133   -1.743662   -1.478285
H       2.177844    0.032301    0.261548
