16

C      -0.643215   -1.330985   -0.102205
C      -0.307922   -0.179334   -0.031976
C       0.075135    1.217696    0.054890
C      -0.152739    1.972026    1.439034
C       1.344863    2.214771    1.401044
C       2.542149    2.798938    1.741254
C       3.457610    2.383176    0.718952
C       2.796819    1.594160   -0.209699
N       1.514297    1.496023    0.257244
H      -0.933434   -2.351025   -0.162657
H      -0.334383    1.778215   -0.792615
H      -0.796973    2.851134    1.358155
H      -0.523564    1.321107    2.233826
H       2.765535    3.428921    2.587407
H       4.509747    2.625728    0.682381
H       3.145385    1.090740   -1.095960
