19

C       0.411201    1.635389    1.239096
C       0.301313    0.235675    0.815157
C       0.222035   -0.909985    0.441932
C       0.130297   -2.271172   -0.004791
C      -0.993599   -3.134964    0.470661
N      -0.961659   -2.685204   -0.922814
N       0.891464    2.608526    0.249197
C       1.917112    2.191536   -0.699832
C       0.516343    2.428918   -1.148557
H      -0.569562    1.984461    1.585347
H       1.083800    1.697174    2.103704
H       1.077477   -2.753717   -0.231800
H      -0.815742   -4.196705    0.615627
H      -1.708907   -2.688542    1.154759
H      -1.599659   -1.901775   -1.042734
H       2.695199    2.924332   -0.893346
H       2.248935    1.155926   -0.675633
H      -0.061731    1.547174   -1.416041
H       0.247433    3.338922   -1.677205
