21

C       0.062826    1.498714    0.029381
N      -0.195723    0.098982   -0.299746
C       0.780426   -0.507650   -1.198045
C       2.165740   -0.468204   -0.654401
N       3.220462   -0.424847   -0.181601
C       0.398891   -1.941010   -1.524998
C      -0.642430   -2.223907   -2.577135
C       0.794173   -2.616798   -2.819907
C       1.628648   -1.943105   -3.888778
H       1.048897    1.683856    0.483943
H      -0.007865    2.102701   -0.882188
H      -0.708960    1.847846    0.720178
H      -0.255741   -0.452576    0.550387
H       0.786239    0.088828   -2.117796
H       0.390602   -2.581271   -0.646275
H      -1.381225   -2.992608   -2.380435
H      -1.027490   -1.371673   -3.128793
H       1.011254   -3.676054   -2.709664
H       1.340817   -0.898741   -4.042776
H       2.694356   -1.963484   -3.637806
H       1.500787   -2.454599   -4.848638
