21

C       0.015074    1.538609    0.055876
C       0.012585    0.007695    0.042881
O       0.788458   -0.524501    1.116001
C      -1.385697   -0.567929    0.032193
C      -2.347069   -0.426294    1.255422
C      -2.985989   -1.722227    0.765621
C      -2.978571   -1.686456   -0.771243
C      -2.335128   -0.367828   -1.187803
C      -1.750046   -2.112626   -0.005889
H       1.042527    1.911785    0.067455
H      -0.493869    1.944995   -0.823855
H      -0.498867    1.922220    0.945809
H       0.532094   -0.340177   -0.859384
H       0.421981   -0.181165    1.938019
H      -1.825600   -0.588189    2.204611
H      -2.958055    0.482187    1.321377
H      -3.661575   -2.375627    1.302703
H      -3.652155   -2.311516   -1.343514
H      -2.946522    0.542583   -1.210556
H      -1.795168   -0.470669   -2.134564
H      -1.152291   -3.011743   -0.015983
