19

C      -0.082841    1.495112   -0.110452
C       0.048395    0.005431    0.015524
C       1.329043   -0.733078   -0.195543
C       0.659102   -0.731688    1.194777
C       1.344641   -0.138499    2.398511
C      -0.241174   -1.905028    1.400303
O      -0.236997   -2.671224    2.331537
C      -1.243717   -1.912894    0.238671
O      -1.119684   -0.667194   -0.426934
H       0.828384    1.997060    0.224202
H      -0.259411    1.769164   -1.155446
H      -0.925144    1.860453    0.484520
H       1.327737   -1.642141   -0.787708
H       2.246598   -0.156700   -0.253938
H       1.983401    0.704770    2.121723
H       0.616914    0.212362    3.137043
H       1.967994   -0.894949    2.885123
H      -1.036185   -2.756438   -0.435929
H      -2.263661   -2.030030    0.618964
