20

C       0.520454    1.344229    0.167324
O       0.587522   -0.056260    0.054796
C       0.147156   -0.525877   -1.202049
C       0.299134   -2.040108   -1.192760
N      -0.652753   -2.856428   -2.095949
C       0.273730   -2.462297   -3.257661
C       1.265739   -2.806652   -2.113820
O       2.643301   -2.704363   -2.060016
C       0.327159   -4.015093   -1.862260
H       1.154302    1.846343   -0.581030
H      -0.509916    1.715589    0.046504
H       0.876684    1.609166    1.165739
H      -0.913612   -0.267538   -1.365463
H       0.730815   -0.051297   -2.006234
H       0.255910   -2.380040   -0.154155
H       0.211231   -3.147730   -4.107769
H       0.170600   -1.425936   -3.582103
H       3.024710   -3.273173   -2.738015
H       0.279957   -4.432748   -0.853670
H       0.262616   -4.790727   -2.630118
