21

C       0.039191    1.582263   -0.063609
C       0.043563    0.052137    0.037078
C       0.723704   -0.641124   -1.170885
C       1.453368   -1.890823   -0.606552
C       2.816673   -2.083808   -1.241228
O       3.211441   -3.097596   -1.755200
C       1.555076   -1.560601    0.869785
C       0.803310   -0.516401    1.225669
C       0.624302    0.019892    2.611585
H       1.061597    1.974760   -0.104680
H      -0.481827    1.908878   -0.969429
H      -0.465792    2.042709    0.791390
H      -1.004195   -0.278813    0.114717
H       0.025526   -0.895320   -1.971735
H       1.466176    0.045811   -1.598330
H       0.889607   -2.817651   -0.770499
H       3.462376   -1.173741   -1.186413
H       2.144918   -2.161969    1.553919
H       1.200813   -0.553553    3.341944
H       0.937335    1.068669    2.679391
H      -0.431303   -0.009001    2.911568
