14

C      -0.068150    1.508433    0.010758
C       1.406846    1.905127   -0.000996
C       2.209214    0.822003   -0.014647
C       1.381347   -0.383788   -0.013551
C       0.057560    0.015720    0.001232
N      -0.693067   -1.102065    0.002199
N       0.068885   -2.227987   -0.011308
C       1.331800   -1.793149   -0.020941
H      -0.586209    1.894588    0.898174
H      -0.602909    1.904445   -0.862292
H       1.725353    2.939080    0.001748
H       3.291284    0.840022   -0.024812
H      -1.693619   -1.202053    0.011120
H       2.134178   -2.515940   -0.032598
