16

C       0.006353    1.450214   -0.019046
N       0.004230    0.005119    0.066586
N      -0.033169   -0.738397   -1.068224
N      -0.026712   -1.986375   -0.725032
C       0.014868   -2.070619    0.644764
C       0.032536   -3.291340    1.356108
C       0.048145   -4.318463    1.983916
C       0.035420   -0.785022    1.165141
C       0.080648   -0.288326    2.567001
H       0.912410    1.864965    0.432220
H      -0.023931    1.708516   -1.077263
H      -0.868956    1.870771    0.484540
H       0.061160   -5.231789    2.525206
H       0.975674    0.315146    2.757049
H      -0.791406    0.329990    2.808847
H       0.093687   -1.139662    3.250186
