23

C      -0.231992    1.495790   -0.001725
C      -0.011399   -0.013553    0.053378
C       1.089008   -0.525150   -0.924644
C       2.090317   -0.571188    0.259350
C       0.880504   -0.528569    1.238248
C       0.994110    0.264584    2.510990
C      -0.019841    0.075227    3.628422
C       1.381970   -0.413398    3.809392
O       1.544011   -1.803662    3.854025
H       0.713195    2.049023    0.039748
H      -0.733010    1.775991   -0.934864
H      -0.855012    1.839774    0.830385
H      -0.978460   -0.519227   -0.031856
H       0.865748   -1.522914   -1.312273
H       1.338085    0.125468   -1.767636
H       2.762534   -1.431511    0.324112
H       2.695936    0.338755    0.321028
H       0.582238   -1.550925    1.488633
H       1.377778    1.274832    2.390388
H      -0.354154    0.936923    4.195202
H      -0.772134   -0.692642    3.481183
H       2.027736    0.139710    4.491576
H       2.395862   -2.014570    3.456764
