17

O      -1.016033    0.430606   -0.688750
C       0.150758    0.553396   -0.932067
C       1.148613    1.278092   -0.011754
O       2.354510    0.537988   -0.113212
C       3.354487    0.946843    0.779263
C       3.323070    0.427606    2.193117
C       4.328376   -0.105702    1.189987
C       1.285979    2.665764   -0.461647
C       1.385901    3.792108   -0.869749
H       0.629228    0.153985   -1.850562
H       0.749424    1.253741    1.011835
H       3.713331    1.959243    0.606482
H       3.667768    1.074344    2.992183
H       2.503303   -0.230322    2.459636
H       4.154240   -1.102641    0.802066
H       5.371833    0.169587    1.291003
H       1.473245    4.792294   -1.217493
