19

C       0.055922    1.424015    0.092336
N      -0.172166   -0.001236   -0.069265
C       0.547259   -0.663377   -1.077411
C       0.717618   -2.023747   -1.250722
C       0.374797   -3.495586   -1.091275
C       1.147140   -3.678294   -2.453620
N       1.440413   -2.235784   -2.396683
C       1.728017   -1.063560   -3.022264
C       1.222580   -0.065393   -2.195778
H       1.113958    1.696240    0.245366
H      -0.300506    1.960109   -0.793830
H      -0.521951    1.782507    0.948326
H      -0.120287   -0.491396    0.812495
H       0.819882   -4.021209   -0.240479
H      -0.687158   -3.752673   -1.146103
H       2.035870   -4.315630   -2.431357
H       0.511021   -3.962683   -3.296807
H       2.300784   -0.998225   -3.933056
H       1.352673    0.993340   -2.360640
