12

O       0.027042    1.331955    0.007758
C      -0.018749   -0.004229    0.001095
C      -1.194543   -0.676959    0.003688
C      -1.196204   -2.109938   -0.003731
N      -2.189438   -2.885399   -0.002610
O       0.134727   -2.687470   -0.013573
C       1.180713   -1.892667   -0.014766
F       2.287484   -2.585445   -0.024312
N       1.222698   -0.621253   -0.008480
H       0.960354    1.584177    0.004246
H      -2.146105   -0.167560    0.011237
H      -1.913847   -3.865182   -0.009102
