17

N      -0.174172    1.272154    0.309242
C      -0.007382   -0.081538    0.073165
O       1.016252   -0.682778    0.342298
N      -1.120304   -0.689408   -0.482302
C      -1.163680   -2.130565   -0.531945
C      -2.506684   -2.653630   -0.066553
O      -3.420918   -1.910063    0.228679
C      -2.707728   -4.157931    0.012566
O      -4.016307   -4.483044    0.373750
H       0.693160    1.750555    0.497353
H      -0.814200    1.780211   -0.281837
H      -2.022870   -0.267602   -0.305075
H      -0.991381   -2.515274   -1.549246
H      -0.355645   -2.539941    0.086644
H      -2.444274   -4.599652   -0.961811
H      -1.976007   -4.555364    0.736864
H      -4.454824   -3.635535    0.546438
