15

O       0.041575    1.413314    0.184261
C       0.047832    0.026594    0.063439
C      -1.313467   -0.674073    0.015591
N      -1.957718   -0.136979   -1.200060
C      -1.007607   -1.282791   -1.321948
C      -1.417555   -2.538250   -1.855122
N      -1.730721   -3.562960   -2.293214
C       0.380199   -0.610546   -1.369503
O       0.634396    0.238577   -2.436143
H      -0.670205    1.743934   -0.377735
H       0.710381   -0.371034    0.834401
H      -1.903720   -1.091804    0.821459
H      -2.908724   -0.496790   -1.258993
H       1.198369   -1.330311   -1.312300
H      -0.148549    0.790079   -2.557232
