22

C      -0.425395    1.288309    0.115614
N       0.017753   -0.096933    0.138565
C       1.394275   -0.366748   -0.261294
C       0.971688   -0.554712    1.156007
C       1.520333    0.318614    2.265780
C       0.586389    0.392486    3.476860
C       1.156284    1.195591    4.640041
C       0.292565    1.277868    5.887088
O       2.236708    1.736346    4.574776
H       0.344693    2.027431    0.386157
H      -0.770532    1.525027   -0.896151
H      -1.275706    1.412347    0.795059
H       1.547020   -1.216990   -0.921536
H       2.039304    0.487718   -0.468929
H       0.759627   -1.575288    1.478427
H       2.485123   -0.089488    2.587923
H       1.738890    1.328630    1.909684
H      -0.382836    0.831956    3.203303
H       0.342313   -0.614680    3.844361
H      -0.691435    1.695895    5.647277
H       0.119193    0.275531    6.295109
H       0.783437    1.897832    6.638101
