18

C      -0.046820    1.539301   -0.065298
C       0.022639    0.051448    0.015758
C       0.572057   -1.035420   -0.857765
C       1.309641   -1.700684    0.304536
C       0.302049   -0.954738    1.230481
C      -1.032333   -1.584069    0.864163
N      -1.987163   -2.156112    1.468554
O      -1.665852   -2.355383    2.836328
C      -0.937064   -1.029579   -0.504662
H       0.911692    2.001310    0.197502
H      -0.302542    1.858628   -1.081255
H      -0.808828    1.940442    0.612186
H       0.873874   -0.961766   -1.895788
H       1.325377   -2.793920    0.366631
H       2.323941   -1.305836    0.409754
H       0.536949   -0.697181    2.258481
H      -2.466498   -2.777367    3.163932
H      -1.703833   -0.937770   -1.261053
