19

C       0.115713    1.501728    0.326504
N       0.023594    0.092599   -0.015920
C      -1.217895   -0.509175   -0.028937
O      -2.250411    0.132704    0.104632
N      -1.210958   -1.877726   -0.239032
C      -0.006522   -2.655640   -0.453753
C      -2.484045   -2.581141   -0.133692
C      -2.815139   -3.357257   -1.328672
C      -3.073911   -4.016397   -2.299861
H       1.078520    1.890807   -0.014756
H      -0.688623    2.036726   -0.178309
H       0.018954    1.687374    1.404589
H       0.824482   -0.474284    0.205144
H       0.520187   -2.901250    0.481537
H      -0.276791   -3.592250   -0.946724
H       0.681686   -2.127574   -1.120101
H      -2.481232   -3.251252    0.739388
H      -3.239329   -1.811492    0.043936
H      -3.320152   -4.583651   -3.163197
