17

C       0.086315    1.064227   -0.320160
O      -0.130822   -0.034105    0.541680
C      -1.349326   -0.668867    0.306962
C      -1.541161   -1.678516   -0.789647
C      -0.250939   -2.478858   -1.013232
C      -0.246717   -2.888990    0.492897
C      -1.537187   -2.087847    0.708859
H       1.066815    1.479524   -0.075286
H       0.075458    0.760948   -1.376862
H      -0.675611    1.846336   -0.178391
H      -2.217565   -0.027903    0.478074
H      -2.371777   -1.618640   -1.483989
H      -0.398223   -3.335299   -1.674285
H       0.611553   -1.906671   -1.366670
H      -0.393609   -3.962391    0.628217
H       0.612139   -2.567022    1.086310
H      -2.361575   -2.390759    1.344304
