19

C       0.019806    1.455447    0.021618
C      -0.037244   -0.042460    0.086235
O       0.447270   -0.758159   -1.113199
C      -0.281755   -1.900589   -0.557060
C       0.519392   -2.245235    0.705178
C       0.794736   -0.780010    1.172994
O       2.154297   -0.403696    1.111183
C      -1.326747   -0.875075   -0.037425
O      -2.037298   -1.094526    1.150880
H       1.055401    1.800875    0.080801
H      -0.429865    1.826370   -0.903262
H      -0.527450    1.878619    0.870383
H      -0.504963   -2.676027   -1.289786
H      -0.064477   -2.821711    1.425881
H       1.451562   -2.770896    0.487351
H       0.453570   -0.575316    2.188763
H       2.412017   -0.516588    0.186545
H      -1.954619   -0.499935   -0.853093
H      -2.863314   -1.541373    0.943907
