17

C       0.080052    1.555979    0.130268
C      -0.007718    0.041169   -0.000094
C       1.054783   -0.590341   -0.978719
C       1.676909   -1.333216    0.210292
C       0.659074   -0.735742    1.150902
N       0.631009   -2.151119    0.798075
C       0.880425   -3.181035    1.685649
O       1.767203   -3.994362    1.578520
H       1.103170    1.875985    0.358575
H      -0.222262    2.044159   -0.801779
H      -0.572110    1.924491    0.929559
H      -1.038145   -0.273115   -0.188745
H       0.677754   -1.225628   -1.782962
H       1.720146    0.170038   -1.394774
H       2.711631   -1.599007    0.385151
H       0.771554   -0.434364    2.187075
H       0.109391   -3.226954    2.479241
