20

C      -0.066001    1.546658   -0.067461
C       0.003438    0.018761    0.021147
C       0.725348   -0.512981    1.269837
O       2.077588   -0.041185    1.305269
C       0.004730   -0.171446    2.612460
C       0.153126   -1.425726    3.435696
C       0.605972   -2.446637    2.711730
C       0.847909   -2.060397    1.276063
H       0.935434    1.988215   -0.113919
H      -0.596939    1.861536   -0.970551
H      -0.590151    1.981341    0.790796
H      -1.011218   -0.397918    0.000951
H       0.523140   -0.372171   -0.861914
H       2.057120    0.905878    1.476106
H       0.457732    0.707637    3.088721
H      -1.054780    0.075100    2.455720
H      -0.108058   -1.467424    4.487468
H       0.770830   -3.452798    3.081270
H       0.111303   -2.526130    0.607630
H       1.838990   -2.346689    0.908534
