21

C      -0.418481    0.981180   -0.086698
O       0.449299   -0.125440   -0.243661
C       0.924361   -0.612064    0.969250
C       0.156734   -1.661726    1.768488
C      -0.930884   -2.444147    1.047467
C      -0.238705   -2.942566   -0.242450
O       1.169858   -2.894903   -0.004961
C       1.449745   -2.020524    1.056624
C       2.761520   -2.340159    1.717314
H       0.096611    1.829784    0.388611
H      -0.744123    1.280172   -1.085700
H      -1.298424    0.727936    0.521299
H       1.455731    0.133397    1.566605
H       0.100414   -1.564929    2.847589
H      -1.245197   -3.280413    1.680349
H      -1.822213   -1.853337    0.815726
H      -0.498303   -3.975296   -0.496730
H      -0.489145   -2.295379   -1.087913
H       3.582104   -2.266896    0.996184
H       2.964452   -1.646443    2.537747
H       2.750285   -3.358976    2.117703
