19

C       0.053488    1.552898    0.038690
C      -0.039842    0.021937    0.072223
C       0.758881   -0.614286    1.179064
C       0.272006   -1.740495    2.003859
N       0.402436   -0.404038    2.631521
C       1.864530   -0.089247    2.886844
C       2.893956   -1.106954    2.486250
C       2.242734   -0.248876    1.434086
H       1.074039    1.895096   -0.159667
H      -0.589525    1.962863   -0.745747
H      -0.263228    1.974179    0.997213
H      -1.088191   -0.274798    0.190773
H       0.294815   -0.396527   -0.887478
H      -0.770671   -2.019587    1.878032
H       0.905720   -2.564080    2.310541
H       2.069109    0.708740    3.589135
H       3.904908   -0.792138    2.729863
H       2.758181   -2.180288    2.554203
H       2.804778    0.414814    0.791062
