17

C      -0.285049    1.527223   -0.056319
N       0.086898    0.120044   -0.078304
C       0.686845   -0.471015   -1.266762
C       2.127447   -0.099387   -1.500900
O       2.686981    1.132491   -1.168457
C       1.823403   -1.089902   -0.425323
C       1.170967   -0.416315    0.792193
C       1.963209    0.528460    1.585307
N       2.536682    1.254306    2.278342
H       0.557252    2.219228   -0.187041
H      -1.012089    1.696544   -0.857069
H      -0.777396    1.757469    0.893656
H       0.054717   -0.915625   -2.029310
H       2.551093   -0.576160   -2.387881
H       2.415162    1.779372   -1.828137
H       2.217932   -2.096338   -0.411538
H       0.758888   -1.154729    1.490358
