14

C      -0.057389    1.495987    0.063592
C      -0.006980    0.009860   -0.050006
C      -0.038955   -0.823889   -1.138441
C       0.039824   -2.179363   -0.679710
C       0.117534   -2.114374    0.688344
O       0.211018   -3.050620    1.669692
N       0.089866   -0.803903    1.071608
H       0.839631    1.911213    0.542044
H      -0.131155    1.937868   -0.932980
H      -0.923242    1.843813    0.642651
H      -0.111558   -0.502394   -2.166660
H       0.039050   -3.076215   -1.279573
H       0.219104   -3.918027    1.254638
H       0.134244   -0.497246    2.027965
