18

C      -0.093575    1.413094    0.620335
O      -0.183842    0.017359    0.775664
C       0.934655   -0.668817    0.260006
C       0.698506   -2.166450    0.469797
O       1.767081   -2.892568   -0.140220
C       2.370892   -3.774301    0.804835
C       1.661475   -3.502756    2.101840
C       0.709514   -2.597324    1.911080
H      -0.018969    1.700675   -0.440287
H      -1.002349    1.849990    1.041710
H       0.779178    1.827803    1.149135
H       1.064298   -0.467702   -0.815828
H       1.862011   -0.365005    0.772911
H      -0.255119   -2.424656   -0.019162
H       2.252842   -4.819146    0.474518
H       3.452069   -3.574372    0.859705
H       1.915663   -3.998811    3.030055
H       0.023610   -2.192569    2.642509
