20

C       0.167617    1.449759   -0.167979
C       0.006554   -0.063850    0.094612
C       0.561269   -0.361778    1.421011
N       0.970802   -0.526923    2.489844
C      -1.457270   -0.595817    0.009253
C      -2.252256    0.041464   -1.144544
O      -3.550628   -0.516316   -1.279149
C      -1.480824   -2.131212   -0.148909
O      -0.563485   -2.823633    0.675270
H       1.205305    1.750553   -0.005039
H      -0.098096    1.696742   -1.198004
H      -0.461693    2.037598    0.506630
H       0.609663   -0.611794   -0.640267
H      -1.960152   -0.324120    0.949863
H      -2.307150    1.130941   -1.024442
H      -1.747068   -0.158052   -2.097571
H      -4.075247   -0.237843   -0.521390
H      -2.508246   -2.490326   -0.014738
H      -1.189538   -2.381654   -1.176471
H      -0.767395   -2.646328    1.599751
