16

C      -0.004157    1.483244   -0.016981
N       0.047662    0.037434    0.014118
C       0.140247   -0.801697   -1.031028
O       0.197377   -0.312400   -2.284482
N       0.166061   -2.073243   -0.696194
C       0.083503   -2.056572    0.674355
O       0.082024   -3.205145    1.394439
C       0.007789   -0.786455    1.172400
N      -0.089024   -0.222537    2.454388
H       0.898663    1.898960   -0.474611
H      -0.873914    1.833106   -0.581285
H      -0.078945    1.825536    1.016001
H       0.259738   -1.077700   -2.869236
H       0.146018   -3.923027    0.754024
H       0.705525   -0.449858    3.042334
H      -0.929516   -0.508601    2.944695
