18

O      -0.070505   -0.010576    0.022356
C      -0.060660    1.195553    0.047130
C      -1.303897    2.053848    0.151881
C      -1.821283    2.467886   -1.245799
C      -0.704979    2.957123   -2.189646
N       0.307612    3.748856   -1.483461
C       1.506378    3.008649   -1.106240
C       1.298469    1.944292   -0.028659
O       2.181842    1.634261    0.731880
H      -2.070153    1.484206    0.683696
H      -1.066433    2.957626    0.721749
H      -2.333139    1.618684   -1.710724
H      -2.563687    3.260042   -1.107303
H      -0.242892    2.091222   -2.694347
H      -1.151038    3.568990   -2.979393
H       0.583652    4.545513   -2.041450
H       1.965105    2.465475   -1.958657
H       2.262747    3.699102   -0.723787
