19

C      -0.311817   -1.238142    0.574400
C      -0.164232   -0.070400    0.330229
C      -0.045189    1.335618    0.014647
C       0.779042    2.195844    0.888736
O       1.275504    1.765340   -0.375486
C      -1.187517    1.909093   -0.797015
C      -1.097314    3.374598   -1.304197
C      -1.717070    2.903252   -2.647759
C      -1.328933    1.446934   -2.277011
H      -0.426865   -2.270711    0.794756
H       0.537259    3.255244    0.961902
H       1.268142    1.760353    1.757793
H      -2.120486    1.736864   -0.250442
H      -1.627856    4.141641   -0.735239
H      -0.053537    3.673942   -1.429848
H      -2.801771    3.042355   -2.665193
H      -1.298361    3.318706   -3.566676
H      -0.355151    1.171226   -2.690940
H      -2.044320    0.651022   -2.492570
