13

N      -0.073111    1.310303    0.011407
C      -0.051203    0.049646    0.003701
O       1.081012   -0.745175   -0.007037
C       0.761817   -2.161205   -0.013883
C      -0.731235   -2.176881   -0.006126
C      -1.163053   -0.895745    0.003854
O      -2.489456   -0.810734    0.011350
N      -2.983264   -2.123065    0.006006
C      -1.934754   -2.921757   -0.004265
H       0.874080    1.691256    0.008721
H       1.209593   -2.608536   -0.908004
H       1.218940   -2.619236    0.870033
H      -2.104656   -3.988766   -0.009791
