23

C      -0.330808    1.469239    0.069076
C       0.062168   -0.005570   -0.057211
O       0.780093   -0.245620   -1.267715
C       0.815585   -0.539267    1.161683
C       2.059348    0.244446    1.548229
C      -0.016548   -1.144930    2.286331
C       0.824142   -2.033674    1.394043
C       0.188965   -3.019328    0.436591
O       2.030212   -2.520229    1.937733
H       0.551896    2.116308    0.114585
H      -0.923311    1.769389   -0.799259
H      -0.921282    1.644213    0.974286
H      -0.858301   -0.584574   -0.178872
H       1.585486    0.281848   -1.242332
H       1.803693    1.242787    1.917289
H       2.619862   -0.278586    2.322529
H       2.736645    0.364782    0.693308
H       0.331642   -0.990767    3.302593
H      -1.097040   -1.167741    2.176109
H      -0.781296   -2.681935    0.067197
H       0.842345   -3.193256   -0.422483
H       0.026199   -3.977559    0.946178
H       1.812067   -3.271533    2.499994
