20

C       0.046047    1.548235   -0.110482
C      -0.013358    0.038364    0.146884
C      -1.436858   -0.506617    0.122019
C      -2.043216   -0.739702   -1.289295
O      -1.242960   -1.974018   -1.378056
C      -1.551348   -2.052392    0.061764
C      -3.071521   -2.334155    0.005906
N      -3.930759   -1.182389    0.373474
C      -3.445902   -1.335273   -1.020103
H       1.076015    1.915391   -0.066373
H      -0.352327    1.801593   -1.099102
H      -0.538393    2.102345    0.632366
H       0.594910   -0.495064   -0.589944
H       0.422487   -0.176991    1.131540
H      -2.075152    0.000590    0.845418
H      -1.908343   -0.066572   -2.135593
H      -0.903745   -2.733042    0.614564
H      -3.459277   -3.344870    0.038337
H      -4.897144   -1.504094    0.412585
H      -4.141319   -1.527230   -1.827899
