19

C       0.205285    1.595615    0.127740
C       0.093112    0.086806    0.026616
C       0.700786   -0.552525   -1.240461
C       1.187297   -1.909179   -0.750571
C       2.490691   -1.945610    0.052142
C       1.203956   -1.795621    0.780138
O       0.809559   -0.507130    1.133029
C       0.709118   -3.148307   -1.391317
O      -0.043908   -3.194010   -2.334757
H       1.250915    1.910146    0.053061
H      -0.361109    2.071206   -0.678864
H      -0.193984    1.949097    1.082236
H      -0.963367   -0.213392    0.106162
H      -0.038312   -0.684807   -2.033551
H       1.521567    0.057705   -1.632613
H       3.000623   -2.902942    0.112233
H       3.135959   -1.077685   -0.024907
H       0.825776   -2.591256    1.416234
H       1.099183   -4.082177   -0.922591
