22

C      -0.155504    1.534529    0.074762
C       0.025321    0.015767   -0.016390
C       0.808994   -0.473764   -1.250443
C       2.259275    0.032512   -1.243732
C       0.733499   -2.008967   -1.337720
C       1.287550   -2.603136   -2.650395
C       1.105699   -4.047418   -2.733153
C       0.942760   -5.237785   -2.775193
H       0.797735    2.057891    0.195225
H      -0.639800    1.929381   -0.825712
H      -0.783215    1.800243    0.931117
H       0.525836   -0.349632    0.891235
H      -0.965155   -0.456646   -0.025245
H       0.309550   -0.063828   -2.142269
H       2.805827   -0.277844   -2.139040
H       2.304474    1.124328   -1.205089
H       2.801128   -0.354607   -0.371970
H       1.271164   -2.454817   -0.491190
H      -0.311262   -2.324474   -1.237459
H       0.789543   -2.124241   -3.504390
H       2.354266   -2.371425   -2.752882
H       0.804770   -6.289197   -2.824084
