16

C       0.032913    1.564128   -0.002125
C       0.027482    0.020805    0.027010
C       0.806552   -0.507224    1.250502
C      -1.437225   -0.524835    0.029333
C      -2.189233   -0.094463    1.205195
N      -2.770938    0.253729    2.140924
C       0.661415   -0.485454   -1.201562
N       1.154989   -0.884840   -2.167135
H       1.057846    1.941110   -0.031715
H      -0.497230    1.945216   -0.879094
H      -0.454994    1.950756    0.896656
H       0.331236   -0.154187    2.169621
H       0.826923   -1.600260    1.265036
H       1.837493   -0.146336    1.230579
H      -1.960634   -0.183601   -0.869600
H      -1.424491   -1.619083   -0.001439
