19

O       0.146319    1.362197   -0.162628
C       0.041504   -0.034417    0.007225
C      -1.428901   -0.520627    0.048535
C      -2.117550   -0.116964   -1.175681
C      -2.645943    0.249795   -2.192689
C      -1.486252   -2.035198    0.292839
C      -2.829696   -2.773156    0.105186
C      -2.076999   -3.562985   -0.984646
O      -0.873571   -2.791196   -0.773283
H      -0.292476    1.579898   -0.993589
H       0.570086   -0.590188   -0.779088
H       0.517190   -0.265467    0.965837
H      -1.916076   -0.029023    0.902756
H      -3.129385    0.562375   -3.085364
H      -0.989564   -2.241977    1.251833
H      -3.170742   -3.351488    0.964566
H      -3.642520   -2.145717   -0.262474
H      -1.917813   -4.627087   -0.772856
H      -2.454612   -3.450878   -2.006713
