17

C       0.164010    1.204506   -0.380620
O      -0.141977    0.148635    0.539855
C      -1.245683   -0.558325    0.247013
C      -1.385570   -1.834802   -0.122304
O      -2.739653   -2.133220   -0.246367
C      -3.461158   -1.000810    0.085335
N      -2.529768    0.008974    0.308424
N      -4.713709   -0.894345    0.174584
C      -5.524539   -2.072308   -0.081783
H       1.071324    1.680576   -0.007103
H       0.339833    0.799713   -1.383696
H      -0.645391    1.941456   -0.426608
H      -0.681632   -2.614967   -0.345697
H      -2.769052    0.785405    0.903358
H      -5.694345   -2.214414   -1.158331
H      -5.079196   -2.999643    0.303468
H      -6.503582   -1.938796    0.387147
