13

C      -0.026372    1.512186   -0.073483
C      -0.024621    0.002809    0.052878
O      -0.039765   -0.573898    1.121574
C      -0.003049   -0.779145   -1.192016
C       0.004366   -2.118967   -1.445875
N       0.026386   -2.332721   -2.810327
C       0.031278   -1.137230   -3.314313
O       0.014378   -0.139768   -2.411373
H       0.860527    1.852247   -0.618646
H      -0.897160    1.847897   -0.646588
H      -0.043292    1.952001    0.923732
H      -0.004746   -2.927436   -0.733323
H       0.046900   -0.852863   -4.355158
