15

C       0.064770    1.506474    0.011155
C       0.004541    0.005983    0.002004
C      -1.190391   -0.676062    0.032592
N      -2.431552   -0.130165    0.104811
C      -1.161603   -2.133453    0.014016
O      -2.152610   -2.851482    0.017966
N       0.128988   -2.615348   -0.017311
N       1.295481   -1.915447   -0.038798
N       1.213669   -0.645463   -0.030583
H       1.106453    1.829612    0.014341
H      -0.425586    1.937111   -0.871896
H      -0.433901    1.921214    0.895917
H      -2.580313    0.834299   -0.134842
H      -3.192188   -0.779831   -0.034262
H       0.253845   -3.619183   -0.034501
