19

C      -0.041109    1.516049   -0.007316
C       0.075939    0.010784   -0.054717
C       0.690749   -0.751453   -1.218936
C       1.975967   -0.062341   -1.694429
O       2.507371    0.041269   -0.341629
C       1.378593   -0.714787    0.137684
C       1.442880   -2.114090    0.621854
C       0.822524   -2.925031   -0.247998
C       0.304419   -2.200620   -1.491606
H       0.900699    1.993119   -0.286957
H      -0.827834    1.871793   -0.680875
H      -0.289127    1.847169    1.006423
H      -0.763421   -0.525496    0.380979
H       2.603768   -0.719758   -2.307819
H       1.892446    0.918838   -2.176685
H       1.889490   -2.422395    1.560001
H       0.652108   -3.985884   -0.085743
H      -0.776319   -2.341474   -1.620252
H       0.772213   -2.589418   -2.406058
