13

N       0.064465    1.348431    0.136672
C       0.013939   -0.023005    0.043161
C      -1.201320   -0.730742    0.081342
N      -1.230085   -2.057366    0.040272
C      -0.072615   -2.709843   -0.035347
C       1.130336   -1.997188   -0.075613
O       2.294855   -2.668904   -0.158465
N       1.182362   -0.671874   -0.042100
H       0.934520    1.764143   -0.158443
H      -0.761886    1.858768   -0.130231
H      -2.150604   -0.205808    0.147381
H      -0.082856   -3.793323   -0.068342
H       2.994561   -2.001228   -0.170374
