15

N       0.008708    1.372786   -0.095917
C      -0.008277   -0.016276   -0.035892
C      -1.190894   -0.751895   -0.092940
N      -1.163771   -2.095009   -0.098912
C       0.001731   -2.685206   -0.043657
O       0.084714   -4.046603   -0.055500
C       1.210823   -1.950983    0.022789
N       2.415131   -2.603828    0.136296
N       1.188148   -0.625723    0.021886
H       0.867684    1.768745    0.258309
H      -0.812811    1.830048    0.270377
H      -2.162610   -0.271421   -0.144163
H      -0.823135   -4.370690   -0.120867
H       2.430578   -3.561850   -0.175317
H       3.224407   -2.050356   -0.099344
