15

C      -0.059012    1.382685    0.088981
O       0.000255   -0.031070    0.004463
C       0.609669   -0.563529   -1.063670
C       1.180038    0.124127   -2.080346
N       1.767439   -0.589822   -3.106885
N       1.817305   -1.926340   -3.175021
N       1.296666   -2.610913   -2.246162
C       0.651461   -2.026729   -1.116565
N       0.137012   -2.750361   -0.198165
H       0.946596    1.822226    0.123494
H      -0.610890    1.809679   -0.758806
H      -0.585871    1.609440    1.015794
H       1.219777    1.199804   -2.165991
H       2.205926   -0.129342   -3.887196
H       0.285691   -3.731867   -0.446182
