16

O      -0.049898   -0.039987   -0.136829
C       0.019076    1.168978   -0.104805
N       1.181432    1.880798    0.012786
C       2.455489    1.311983    0.174272
C       3.403234    2.227505    0.399845
C       2.795218    3.603832    0.387880
O       2.958448    4.344296   -0.851475
C       1.599012    4.070783   -1.252292
C       1.296620    3.334304    0.070855
H      -0.862910    1.834793   -0.170224
H       2.526218    0.235680    0.116954
H       4.449783    2.019446    0.565545
H       3.064307    4.229596    1.245068
H       1.030710    4.993835   -1.417283
H       1.539897    3.439502   -2.146759
H       0.529005    3.775380    0.706794
