20

C      -0.884171    1.432528   -0.006762
C      -0.185014    0.082376   -0.017680
O      -1.116522   -0.976699   -0.165782
C       1.073945   -0.058036   -0.925050
N       1.855830   -0.628591    0.199815
C       3.071433    0.102230    0.588086
C       2.620543    1.033702    1.692888
C       1.343215    0.821498    2.008690
C       0.765582   -0.279926    1.165035
H      -0.182125    2.243465    0.203479
H      -1.345005    1.632995   -0.982710
H      -1.675059    1.446885    0.749843
H      -1.630637   -0.812057   -0.963783
H       0.955466   -0.743511   -1.771627
H       1.461284    0.902852   -1.292983
H       3.857972   -0.581462    0.941396
H       3.491804    0.635797   -0.276377
H       3.283325    1.743870    2.174639
H       0.788786    1.327654    2.790231
H       0.383395   -1.121478    1.756357
