18

N      -0.554823   -0.765035   -0.879732
C      -0.367398    0.269440   -0.397346
C      -0.093082    1.554623    0.220060
C       0.135930    1.608445    1.763521
C       1.273962    2.631423    1.514084
C       1.321790    2.194809    0.030028
C       2.507527    1.353570   -0.490756
O       2.799063    2.325336   -1.515586
C       1.672656    3.135518   -1.132349
H      -0.866792    2.268247   -0.081720
H      -0.715586    1.921067    2.369073
H       0.510255    0.654850    2.140927
H       0.930134    3.665126    1.619064
H       2.193796    2.509794    2.090051
H       3.341669    1.232574    0.212058
H       2.244008    0.376379   -0.913609
H       0.917208    3.197725   -1.927739
H       1.970225    4.151755   -0.841545
