20

C      -0.136421    1.575413    0.013226
C       0.056053    0.066516    0.041304
C       1.116634   -0.568592   -0.911099
C       1.788574   -1.300525    0.299249
C       2.040720   -2.786677    0.229984
C       0.784756   -0.570421    1.264608
N       1.932921    0.170172    1.788913
C       2.864232   -0.389299    0.934036
O       4.036515   -0.186296    0.761159
H       0.814020    2.097949    0.163745
H      -0.540267    1.899342   -0.951796
H      -0.832842    1.905371    0.792637
H      -0.910308   -0.431803   -0.089562
H       0.694517   -1.255873   -1.648310
H       1.769347    0.135669   -1.433729
H       2.866950   -2.994923   -0.458493
H       2.314885   -3.193239    1.208980
H       1.158234   -3.326184   -0.130143
H       0.187203   -1.077916    2.024367
H       1.976800    1.041604    2.299799
