20

C       0.113117    1.315053   -0.379234
N      -0.124441    0.046330    0.304347
C      -1.454914   -0.483388    0.159445
C      -2.484240    0.208663    1.028923
C      -1.900774   -1.067149   -1.167184
C      -1.531917   -2.013582   -0.031604
N      -0.362547   -2.841011   -0.162642
C      -2.621937   -2.702971    0.631699
N      -3.486742   -3.242105    1.178981
H       1.168276    1.582229   -0.275293
H      -0.138835    1.301129   -1.453551
H      -0.473681    2.111049    0.089018
H       0.552197   -0.641996   -0.004089
H      -2.610557    1.251514    0.719582
H      -3.460026   -0.276782    0.963111
H      -2.160026    0.200571    2.073284
H      -2.944553   -1.011263   -1.454774
H      -1.203397   -1.040198   -1.999368
H       0.154938   -2.677969   -1.014060
H       0.251059   -2.800097    0.642370
