16

N      -0.130811    1.179583   -0.565411
C      -0.069780    0.021899   -0.093528
O       0.957909   -0.624659    0.581956
C       0.193557   -1.866527    0.644234
C      -0.597385   -1.989122    1.958950
C      -1.838753   -1.313102    1.265130
C      -2.408542   -0.126809    1.864892
C      -2.869032    0.858158    2.377292
C      -0.998618   -1.167393   -0.061749
H       0.729037    1.701411   -0.386939
H       0.763609   -2.708241    0.253591
H      -0.792001   -3.014942    2.277897
H      -0.159686   -1.426451    2.783890
H      -2.623518   -2.057210    1.101195
H      -3.275904    1.734891    2.816985
H      -1.469955   -1.471534   -0.993068
