18

C      -0.014013    1.516818    0.024934
C      -0.006307    0.024269   -0.034180
C      -0.054960   -0.789309   -1.120469
N       0.085547   -2.135094   -0.832032
C       0.072742   -2.254979    0.606058
C      -0.663410   -3.348761    1.342463
C       0.836646   -3.324800    1.349525
C       0.067691   -0.841501    1.142647
O       0.131150   -0.541897    2.322815
H       0.922209    1.903398    0.444304
H      -0.150352    1.959867   -0.965873
H      -0.817300    1.876748    0.676885
H      -0.154188   -0.491293   -2.158023
H      -0.453899   -2.793356   -1.376308
H      -1.185473   -3.038677    2.241574
H      -1.163970   -4.107489    0.749283
H       1.366152   -4.058667    0.752844
H       1.334955   -2.993800    2.254472
