19

O      -0.069635    1.395114   -0.021877
C       0.017123    0.006278    0.013881
C       0.359694   -0.801931    1.304316
C      -0.405020   -1.919871    0.562886
C      -1.316148   -0.818248   -0.054305
C      -1.743865   -1.341836   -1.421154
O      -0.755613   -2.338922   -1.737157
C       0.305585   -2.141053   -0.802651
C       0.903815   -0.722406   -1.021094
H       0.817272    1.755477   -0.127937
H       1.413469   -0.956124    1.557194
H      -0.190317   -0.437558    2.175037
H      -0.809750   -2.798589    1.060707
H      -2.101369   -0.419942    0.587248
H      -2.729601   -1.820401   -1.398590
H      -1.762040   -0.558310   -2.191085
H       0.994500   -2.980642   -0.892863
H       0.754931   -0.391467   -2.051732
H       1.967510   -0.643397   -0.771486
