17

C       0.010075    1.270800   -0.459031
N      -0.056193    0.053290    0.357514
C      -1.149757   -0.765803    0.159102
C      -1.314594   -2.023654   -0.302214
N      -2.664929   -2.374605   -0.310569
C      -3.246023   -1.308403    0.142694
O      -4.537113   -1.086958    0.343372
C      -5.390571   -2.186946    0.008193
O      -2.447383   -0.282070    0.456718
H       0.952580    1.785031   -0.251377
H      -0.000322    0.988437   -1.515353
H      -0.819178    1.969678   -0.280130
H       0.099551    0.260919    1.337900
H      -0.546955   -2.707321   -0.628069
H      -5.287619   -2.444371   -1.049467
H      -5.140755   -3.064269    0.611058
H      -6.403647   -1.848267    0.224316
