16

C      -0.037750    1.532591   -0.005251
C       0.036417    0.006513    0.023142
O       0.783191   -0.461698   -1.100593
C       1.845062   -1.244861   -0.671642
N       2.673500   -1.800096   -1.453965
C       1.815102   -1.290816    0.781857
C       0.765693   -0.571475    1.218560
N       0.279853   -0.382999    2.486621
H       0.962499    1.965255    0.084067
H      -0.479729    1.863571   -0.948249
H      -0.663690    1.914326    0.808998
H      -0.978988   -0.412061   -0.038001
H       2.439377   -1.587368   -2.424282
H       2.542299   -1.835939    1.363945
H       0.902103   -0.607930    3.247874
H      -0.261790    0.451491    2.650275
