18

C       0.022367    1.490872    0.074931
C       0.016065    0.003924   -0.049018
C      -0.045048   -0.818209   -1.138535
C      -0.018564   -2.174160   -0.672049
C      -0.065104   -3.361149   -1.506554
O      -0.133212   -3.356063   -2.719618
C       0.059516   -2.135401    0.717141
C       0.117634   -3.216889    1.745691
N       0.079269   -0.816551    1.070373
H       0.932997    1.861386    0.562151
H      -0.029664    1.943763   -0.917263
H      -0.832433    1.861293    0.654641
H      -0.103104   -0.517296   -2.172505
H      -0.033759   -4.327663   -0.952924
H       1.036140   -3.158974    2.342535
H      -0.729091   -3.160564    2.440774
H       0.092271   -4.200533    1.274917
H       0.131812   -0.482778    2.018989
