20

C       1.243554    0.954952    0.716612
C       0.093692    0.290072   -0.051656
C       0.608453   -0.406222   -1.294669
C       1.016935   -1.821392   -1.396184
C       0.110854   -2.755343   -0.590267
C      -1.048308   -2.190781   -1.466709
C      -2.306831   -1.654916   -0.837637
O      -2.738416   -0.537650   -0.955574
N      -0.145116   -1.273252   -2.231790
H       1.983446    0.216695    1.044036
H       1.763615    1.690791    0.093731
H       0.871017    1.474611    1.604122
H      -0.426729   -0.404658    0.613484
H      -0.649786    1.036731   -0.347425
H       1.230610    0.254989   -1.897877
H       1.943519   -2.137529   -1.864764
H       0.299967   -3.814380   -0.767246
H       0.068986   -2.582113    0.489016
H      -1.388474   -2.972463   -2.160431
H      -2.856369   -2.427984   -0.246772
