23

C      -0.102770    1.713783   -0.149649
C       0.023346    0.194891    0.013742
C      -1.330945   -0.505927    0.046142
C      -2.096272   -0.628457   -1.283496
O      -1.322741   -1.470906   -2.149562
C      -2.170680   -2.091659   -1.172917
C      -1.411649   -2.089978    0.165958
C      -0.135396   -2.920927    0.249533
C      -0.415585   -4.426534    0.314927
H       0.880641    2.193188   -0.172875
H      -0.617661    1.972103   -1.081423
H      -0.670423    2.157526    0.676287
H       0.617471   -0.216681   -0.808721
H       0.569506   -0.029032    0.938644
H      -1.970583   -0.051199    0.811419
H      -2.770224    0.074996   -1.759527
H      -2.915772   -2.786902   -1.543242
H      -2.088148   -2.357757    0.985842
H       0.491037   -2.699586   -0.620760
H       0.437573   -2.617094    1.134557
H      -0.960982   -4.768384   -0.571485
H       0.514144   -5.000877    0.371486
H      -1.018905   -4.681667    1.193688
