17

O      -0.101604    0.006372   -0.145807
C      -0.088036    1.198648   -0.020724
C      -1.290451    2.181737    0.070228
C      -0.863329    3.362130    1.022296
C       0.198930    3.486932   -0.088530
C       1.414234    4.180692   -0.712977
N       2.032882    2.816950   -0.966963
C       1.067083    2.228707    0.039986
N      -0.885415    3.091564   -1.047899
H      -2.290660    1.752174    0.068924
H      -1.631647    4.136687    1.027569
H      -0.513872    3.125626    2.028271
H       1.218964    4.792660   -1.598148
H       2.037167    4.741255   -0.010522
H       1.828727    2.500675   -1.910939
H       1.604299    2.092429    0.986805
H      -0.555055    2.595986   -1.880477
