18

C      -0.038589    1.423029   -0.159369
C       0.117542   -0.061887    0.053337
N       1.213898   -0.559655    0.449524
N      -1.071092   -0.772754   -0.234261
C      -1.263249   -2.133884   -0.140930
O      -0.410408   -2.935330    0.181350
N      -2.577036   -2.488938   -0.525723
C      -3.658934   -2.418591    0.468739
C      -3.120906   -3.727296    0.000422
H       0.904285    1.912649    0.079369
H      -0.305299    1.645686   -1.199304
H      -0.829437    1.833024    0.479650
H       1.138674   -1.574735    0.529226
H      -1.853158   -0.247303   -0.593366
H      -3.394506   -2.099942    1.473894
H      -4.609112   -2.044304    0.099405
H      -3.685578   -4.320539   -0.711829
H      -2.482138   -4.285720    0.677637
