19

C      -0.006551    1.639954    0.067887
C       1.535682    1.504049    0.079596
C       1.732862    0.714741    1.417394
C       0.916584   -0.566178    1.017923
C       0.018085    0.108295   -0.080770
C       1.412302    0.221961   -0.818752
C       1.497690   -0.577838   -2.107694
O       1.432674   -1.788805   -1.286908
C       1.865163   -1.045019   -0.100874
H      -0.484489    2.097989    0.939612
H      -0.382520    2.107409   -0.847114
H       2.205924    2.339664   -0.115552
H       2.780079    0.492778    1.644726
H       1.296708    1.243378    2.269128
H       0.531034   -1.182985    1.830704
H      -0.801707   -0.467064   -0.503096
H       0.667434   -0.513079   -2.818741
H       2.456237   -0.521128   -2.642146
H       2.899758   -1.301017    0.152855
