21

C      -0.038758    1.564101    0.175021
C      -0.055659    0.044611   -0.032038
C      -1.443521   -0.541250   -0.089819
C      -1.739070   -2.057813    0.049051
C      -3.030719   -1.459138    0.624857
O      -2.248300   -0.331372    1.139440
C      -3.727666   -0.774756   -0.570299
O      -4.697812    0.153267   -0.140694
C      -2.447831   -0.114927   -1.186214
H       0.987515    1.927587    0.278960
H      -0.494351    2.093049   -0.667557
H      -0.588971    1.834187    1.080730
H       0.465489   -0.218757   -0.961575
H       0.490136   -0.443718    0.783500
H      -1.790595   -2.671977   -0.854054
H      -1.123643   -2.527451    0.818010
H      -3.656480   -1.945612    1.372768
H      -4.233767   -1.470288   -1.244130
H      -4.261935    0.676972    0.545248
H      -2.573522    0.967476   -1.254629
H      -2.182593   -0.502152   -2.173909
