16

C      -0.057023    1.531746    0.106366
C      -0.065804    0.040347    0.017355
C       0.013395   -0.767023   -1.094341
N       0.123978   -0.463544   -2.454388
C       0.194363   -1.369516   -3.467535
O       0.170586   -2.580095   -3.328819
N      -0.035735   -2.064455   -0.646278
C      -0.142154   -1.996905    0.710854
N      -0.162812   -0.756629    1.139131
H       0.025967    2.001926   -0.879660
H      -0.974341    1.905274    0.574021
H       0.783049    1.886611    0.713033
H       0.153328    0.514814   -2.694898
H       0.277356   -0.878760   -4.452953
H       0.005278   -2.856854   -1.272160
H      -0.200069   -2.882011    1.325620
