21

C      -0.054412    1.565100   -0.021293
C       0.122537    0.042723    0.038567
C       0.701386   -0.532426   -1.230531
O       2.004696    0.000102   -1.460331
C       2.409899   -0.633052   -2.679902
C       1.190325   -1.491349   -2.968509
C       0.693338   -2.055677   -1.593757
C      -0.762052   -1.922863   -2.096989
C      -0.067153   -0.635224   -2.594639
H       0.900457    2.055012   -0.226158
H      -0.755421    1.850296   -0.812954
H      -0.444686    1.950208    0.925462
H       0.794502   -0.219226    0.864785
H      -0.837461   -0.440140    0.249305
H       2.605020    0.120850   -3.453543
H       3.326142   -1.215277   -2.518224
H       1.172826   -2.125009   -3.855520
H       1.141884   -2.870768   -1.022989
H      -1.065309   -2.631243   -2.871967
H      -1.548220   -1.814642   -1.345831
H      -0.493506    0.182120   -3.178618
