24

C      -0.003691    1.636228    0.055943
C      -0.003048    0.105325   -0.010315
C       0.673583   -0.537173    1.209620
O       0.020869   -0.123403    2.412888
C       0.841332   -2.087005    1.158785
C       1.655771   -2.494188   -0.083477
C       1.615227   -2.519397    2.419569
C      -0.524232   -2.798793    1.136767
H       1.018988    2.029297    0.044098
H      -0.537318    2.068538   -0.795928
H      -0.479015    1.985554    0.975944
H      -1.037201   -0.259637   -0.083402
H       0.500669   -0.220694   -0.925917
H       1.683759   -0.113800    1.298684
H      -0.913937   -0.340102    2.327980
H       2.592504   -1.928231   -0.146984
H       1.917019   -3.556727   -0.033766
H       1.103276   -2.337667   -1.014620
H       1.102564   -2.186367    3.324468
H       1.720157   -3.609040    2.455914
H       2.622337   -2.086926    2.427772
H      -1.106273   -2.549339    0.243802
H      -0.387755   -3.885147    1.144158
H      -1.122448   -2.546088    2.019044
