23

C       0.025269    1.380477    0.035195
O      -0.025440   -0.021644    0.118678
C      -1.318510   -0.543288   -0.113740
C      -1.252259   -2.052587    0.023516
C      -0.991178   -2.677285    1.434755
C      -2.265774   -3.526999    1.282026
C      -2.386545   -4.964819    1.697419
C      -3.444842   -2.610079    1.124955
C      -2.554843   -2.857165   -0.069357
H       1.056834    1.685335    0.229522
H      -0.269558    1.743347   -0.962886
H      -0.632104    1.860650    0.778251
H      -2.036732   -0.111601    0.603816
H      -1.669745   -0.267296   -1.124229
H      -0.512476   -2.426641   -0.690232
H      -0.073667   -3.269477    1.464258
H      -0.979654   -1.979971    2.279218
H      -2.408734   -5.062433    2.790113
H      -3.306489   -5.414727    1.309050
H      -1.541852   -5.560038    1.331115
H      -4.410663   -3.104466    1.074909
H      -3.475019   -1.642857    1.621572
H      -2.948974   -3.300041   -0.977613
