24

C      -2.668764    1.235308   -1.838455
C      -1.888966   -0.013053   -1.409738
C      -0.648883   -0.345715   -2.277322
O       0.577102    0.102865   -1.705055
C       0.751986    1.498993   -1.660216
C      -0.495901   -1.845010   -2.430226
C      -1.091976   -2.553486   -3.600299
N       0.353236   -2.469400   -3.437247
C       1.106719   -1.644016   -4.370002
H      -2.057151    2.141280   -1.801102
H      -3.038228    1.131097   -2.864699
H      -3.536952    1.394828   -1.191150
H      -1.549962    0.077843   -0.371087
H      -2.568319   -0.872784   -1.434584
H      -0.771544    0.124472   -3.266519
H       1.787539    1.682776   -1.361287
H       0.580701    1.965097   -2.643823
H       0.091234    1.986103   -0.928811
H      -0.468254   -2.361161   -1.470427
H      -1.535980   -3.539991   -3.492280
H      -1.554323   -1.932617   -4.368943
H       0.538502   -0.805997   -4.803743
H       1.981656   -1.235190   -3.857926
H       1.447954   -2.276106   -5.196158
