22

C       0.182190    1.435986   -0.897296
C       0.098367    0.027252   -0.540864
C       0.032877   -1.135575   -0.231813
C      -0.032937   -2.535045    0.090723
N      -0.199194   -2.915213    1.519537
C      -1.282947   -3.203871    0.576836
C      -2.587996   -2.461171    0.775563
C      -3.393108   -2.431143   -0.530414
C      -3.385868   -3.084744    1.928563
H       1.146072    1.671843   -1.361933
H      -0.605083    1.718907   -1.605017
H       0.077136    2.073572   -0.012497
H       0.632043   -3.160777   -0.502232
H       0.348403   -3.750953    1.708303
H      -1.401826   -4.240911    0.256841
H      -2.330652   -1.432148    1.050788
H      -4.331371   -1.882725   -0.398464
H      -2.826528   -1.946557   -1.331404
H      -3.648263   -3.445206   -0.862051
H      -2.795161   -3.088849    2.849262
H      -4.308177   -2.525132    2.115433
H      -3.667958   -4.120134    1.700309
