18

O      -0.117878    0.114944    0.216257
C      -0.026037    1.301224    0.081868
N      -0.998878    2.323411    0.082023
C       0.019470    3.371338   -0.037801
C       1.051255    3.292791    1.055706
C       0.759461    2.873736    2.473919
C       0.942979    3.866556    3.596587
C      -0.441962    3.422452    3.214172
C       1.100260    2.307744   -0.119772
H      -1.743029    2.351994    0.769995
H      -0.139349    4.219971   -0.690133
H       1.829055    4.049563    0.955184
H       1.025180    1.847376    2.707105
H       1.364010    3.513720    4.531132
H       1.239631    4.875505    3.327532
H      -1.068021    4.137898    2.690364
H      -0.979895    2.760742    3.883995
H       1.952672    2.223454   -0.778455
