21

C       0.520407    1.610077   -0.686340
C       0.330133    0.199597   -0.377870
C       0.182862   -0.969783   -0.124876
C      -0.012563   -2.369183    0.194250
C      -0.070459   -2.799546    1.696316
C      -1.169186   -3.820005    1.311609
O      -2.224401   -4.084962    2.199049
C      -1.433008   -3.021921   -0.006427
C      -2.604981   -2.050895    0.072259
H       1.569594    1.904851   -0.571446
H       0.225967    1.836934   -1.717230
H      -0.075722    2.248977   -0.025071
H       0.735620   -2.974751   -0.328778
H       0.847656   -3.170667    2.156223
H      -0.473579   -1.992806    2.315776
H      -0.731176   -4.796676    1.084859
H      -2.617707   -3.245035    2.457540
H      -1.525029   -3.634581   -0.907742
H      -2.532335   -1.380362    0.936298
H      -2.639711   -1.414669   -0.816259
H      -3.550585   -2.597913    0.142051
