15

O      -0.172710   -0.052579   -0.029721
C      -0.015061    1.138281    0.069670
N      -1.047864    2.077489    0.245524
C      -0.571293    3.372863    0.468442
C       0.739799    3.426470    0.178214
C       2.002517    3.751322    0.951822
N       1.937017    2.824615    2.128107
C       2.420966    2.321214    0.824464
C       1.223803    2.023851   -0.123464
H      -2.009843    1.788293    0.327843
H      -1.221080    4.107389    0.925967
H       2.601946    4.651347    0.978086
H       2.771108    2.992000    2.694610
H       3.411047    1.894878    0.724210
H       1.603140    1.868455   -1.139595
