19

C       0.121627    1.503318    0.275211
C       0.051362    0.007042   -0.027401
C       0.775260   -0.358730   -1.318659
O       0.997439    0.438817   -2.210064
N       1.150973   -1.677172   -1.409842
C       1.760743   -2.212720   -2.615616
C       3.214325   -2.664690   -2.396712
C       0.944448   -3.315374   -3.153548
N       0.316426   -4.199424   -3.552752
H       1.150553    1.817425    0.472320
H      -0.240772    2.079624   -0.578133
H      -0.484895    1.747193    1.151466
H       0.452813   -0.585167    0.803660
H      -0.994178   -0.307239   -0.147981
H       0.920406   -2.314416   -0.664174
H       1.739391   -1.385519   -3.333168
H       3.805083   -1.812377   -2.053622
H       3.269059   -3.459147   -1.646999
H       3.642220   -3.042920   -3.328724
