21

C      -0.075582    1.533584   -0.088954
C      -0.031391    0.034985    0.092360
N       1.270036   -0.632569   -0.115013
C       0.651062   -0.638737    1.225102
C       1.407318    0.048907    2.359412
C       1.848041   -1.140864    3.249606
N       0.915895   -2.268214    3.020742
C      -0.497529   -1.890890    3.139337
C       0.152589   -1.936739    1.801563
H       0.831708    2.002096    0.299251
H      -0.159010    1.790764   -1.150393
H      -0.939134    1.964095    0.429979
H      -0.907988   -0.486203   -0.294218
H       1.139703   -1.533853   -0.570093
H       2.256355    0.620027    1.982056
H       0.755097    0.740215    2.902967
H       2.843774   -1.486857    2.954602
H       1.881861   -0.893980    4.314846
H      -1.155487   -2.699209    3.445162
H      -0.754992   -0.919740    3.555672
H      -0.066186   -2.750816    1.113202
