19

C       0.079529    1.439179    0.038417
N       0.070484   -0.015331    0.007037
C       0.128118   -0.664773    1.302204
C       0.007119   -0.652840   -1.201545
O      -0.041200   -0.046357   -2.261348
C      -0.001540   -2.185241   -1.193519
C      -0.075262   -2.716389   -2.634864
C      -0.085051   -4.176615   -2.672633
N      -0.092000   -5.332198   -2.685331
H       0.993529    1.807123    0.520872
H       0.033598    1.806596   -0.984807
H      -0.781586    1.816640    0.603782
H      -0.729132   -0.368638    1.921001
H       0.119422   -1.748512    1.208840
H       1.041773   -0.375889    1.838073
H       0.898528   -2.570143   -0.702462
H      -0.853686   -2.559929   -0.616597
H      -0.971370   -2.332516   -3.129980
H       0.772067   -2.341906   -3.215620
