23

C       0.059440    1.573205    0.143390
C       0.023268    0.058080    0.036231
O       0.688252   -0.489611    1.156353
C       0.710767   -1.900614    1.152480
C       1.449250   -2.358254    2.401359
C       1.546207   -3.871079    2.521512
O       1.070059   -4.608453    1.686410
C       2.274081   -4.406344    3.748393
C       2.334959   -5.930601    3.806391
H       1.092521    1.931868    0.164922
H      -0.448928    2.028737   -0.711640
H      -0.436787    1.905054    1.059903
H      -1.018675   -0.303051   -0.001131
H       0.510238   -0.276282   -0.895711
H      -0.310726   -2.311502    1.142291
H       1.213078   -2.284725    0.251072
H       2.461017   -1.932408    2.415934
H       0.954923   -1.959133    3.296676
H       3.281424   -3.967389    3.758594
H       1.778817   -3.993953    4.638439
H       2.849608   -6.334029    2.930716
H       2.864719   -6.262332    4.703677
H       1.330398   -6.360875    3.817598
