15

N      -0.000170    1.372220    0.009295
C      -0.059465    0.029473    0.002041
C      -1.263111   -0.655671    0.005194
C      -1.488972   -2.038007   -0.000793
C      -0.584069   -3.078624   -0.011051
N       0.761099   -3.048579   -0.017932
C       1.538487   -2.003763   -0.016971
C       1.305570   -0.565905   -0.009028
O       2.264491    0.213432   -0.011177
H       0.933138    1.763634    0.003734
H      -0.817991    1.954085    0.013910
H      -2.156722   -0.034091    0.013437
H      -2.535229   -2.335222    0.003336
H      -0.998070   -4.084770   -0.014093
H       2.610064   -2.212616   -0.023619
