15

N       0.058438    1.401524   -0.058371
C      -0.006183    0.027878   -0.020824
N       1.146188   -0.673885    0.020348
H       2.007557   -0.250974   -0.281384
H       1.012665   -1.692834   -0.042319
C      -1.195485   -0.676015   -0.045961
C      -1.279331   -2.115523    0.022630
O      -0.339019   -2.932835    0.051921
C      -2.726987   -2.326298    0.067489
N      -3.399093   -1.206138    0.006502
N      -2.503895   -0.174553    0.030607
H       0.900081    1.808656    0.324523
H      -0.773788    1.876198    0.259662
H      -3.241989   -3.275020    0.120177
H      -2.815556    0.626571   -0.499617
