20

C      -0.034162    1.557871    0.047646
C       0.044177    0.040727    0.030270
C      -1.244810   -0.618284   -0.434479
C       1.315023   -0.691485   -0.354583
C       2.640041    0.045505   -0.304750
O       2.706132    0.685429    0.969082
C       1.879853   -0.019042    1.895095
C       0.819895   -0.733504    1.078182
H       0.895485    2.018884    0.382615
H      -0.264291    1.938711   -0.954525
H      -0.840662    1.889874    0.712232
H      -1.504207   -0.298792   -1.450666
H      -1.163336   -1.709973   -0.438549
H      -2.081513   -0.348104    0.220446
H       1.243641   -1.558174   -1.003218
H       3.467082   -0.672025   -0.429700
H       2.754672    0.829172   -1.062451
H       2.466477   -0.756996    2.465846
H       1.488428    0.721655    2.601876
H       0.379235   -1.631524    1.498120
