23

C       0.091551    1.524801    0.085823
C       0.037278    0.005943    0.017752
C       0.627837   -0.555110   -1.285784
C       0.967039   -2.040196   -1.179208
C       2.240366   -2.462274   -0.482829
C       0.910306   -2.712916    0.175952
C       0.500176   -1.878405    1.378331
C       1.237523   -2.263350    2.654642
O       0.743320   -0.495929    1.148884
H       1.131225    1.866541    0.065558
H      -0.434242    1.967686   -0.765845
H      -0.370000    1.886472    1.008527
H      -1.013727   -0.324019    0.095201
H      -0.094970   -0.394957   -2.093603
H       1.524287    0.019590   -1.551077
H       0.668406   -2.645627   -2.029064
H       2.793988   -3.308471   -0.874586
H       2.855222   -1.668564   -0.069989
H       0.555393   -3.739303    0.206619
H      -0.585038   -2.018697    1.536881
H       2.316317   -2.138460    2.525686
H       0.911620   -1.632800    3.486519
H       1.038719   -3.308916    2.909424
