23

C       0.171916    1.608097    0.112684
C      -0.005756    0.090393    0.009101
C       0.653952   -0.507258   -1.240594
O       2.036384   -0.152091   -1.300647
C       0.477192   -2.038410   -1.369117
C      -0.995485   -2.476611   -1.365049
C       1.192804   -2.548767   -2.640393
C       1.415854   -4.039145   -2.604193
O       1.010823   -4.829969   -3.417564
H       1.229992    1.880587    0.101841
H      -0.307337    2.116298   -0.731224
H      -0.276265    1.993788    1.033090
H       0.419650   -0.399640    0.898481
H      -1.072811   -0.153715    0.009103
H       0.216441   -0.035418   -2.131468
H       2.450803   -0.456476   -0.484712
H       0.976824   -2.490189   -0.496259
H      -1.084936   -3.544469   -1.586513
H      -1.477365   -2.297820   -0.400901
H      -1.563024   -1.938161   -2.133186
H       0.625041   -2.296618   -3.541908
H       2.173886   -2.060840   -2.696950
H       2.009094   -4.384976   -1.722293
