21

C      -0.049029    1.404883    0.096981
O       0.006961   -0.010168    0.039316
C       0.641461   -0.598437    1.120381
O      -0.134622   -0.357533    2.288115
C       0.532849   -0.759427    3.470259
C       1.159660   -2.120331    3.343159
C       1.267201   -2.734576    2.167326
C       0.786408   -2.105688    0.880084
C      -0.516924   -2.752195    0.380177
H       0.959888    1.838976    0.168606
H      -0.514921    1.740498   -0.831809
H      -0.642775    1.748737    0.950135
H       1.643282   -0.145933    1.271762
H       1.300221   -0.015157    3.755474
H      -0.222028   -0.752034    4.265271
H       1.524928   -2.578346    4.258565
H       1.702654   -3.728492    2.101934
H       1.559301   -2.241133    0.111546
H      -1.327011   -2.561041    1.088774
H      -0.803328   -2.344645   -0.591442
H      -0.393753   -3.835543    0.284433
