20

O      -0.106278    1.448868    0.081673
C       0.005064    0.030016   -0.026828
C      -1.421421   -0.515493   -0.044126
O      -2.094416   -0.068660    1.129723
C      -2.223945   -0.145219   -1.318696
C      -3.228311   -1.311334   -1.453003
N      -2.621955   -2.511392   -0.839609
C      -1.249522   -2.771390   -1.287952
C      -1.494126   -2.033991   -0.019716
H       0.746910    1.807650    0.340421
H       0.543145   -0.259350   -0.940230
H       0.537912   -0.387701    0.839016
H      -1.850577    0.861625    1.223785
H      -2.715034    0.822127   -1.202406
H      -1.565393   -0.073861   -2.189700
H      -4.139797   -1.094023   -0.888278
H      -3.512899   -1.519560   -2.488870
H      -0.952358   -3.815259   -1.247920
H      -0.857805   -2.229349   -2.145467
H      -1.344399   -2.508828    0.945033
