17

O       0.135783   -0.059256   -0.000288
C       0.070091    1.146547    0.007973
C      -1.222157    1.983540    0.031618
C      -0.770164    3.450469    0.033749
C      -1.381313    4.457980   -0.983177
O      -1.711036    5.392356    0.058765
C      -1.351549    4.445823    1.079679
C       0.732106    3.363289    0.011537
C       1.197956    2.109740   -0.002659
H      -1.834650    1.729910   -0.839237
H      -1.809172    1.719542    0.916823
H      -0.694322    4.886253   -1.722541
H      -2.274529    4.079583   -1.498390
H      -2.229594    4.061231    1.615952
H      -0.643442    4.865471    1.803912
H       1.338983    4.263926    0.008104
H       2.233474    1.795200   -0.019526
