14

C       0.069339    1.541580    0.004858
C       0.002361    0.013760    0.049698
C      -1.444611   -0.502831   -0.065383
O      -2.047500   -0.087030   -1.260599
C      -1.478144   -2.012455    0.041678
O      -1.956119   -2.703831   -0.825631
H       1.105942    1.888736    0.043284
H      -0.386546    1.914070   -0.915586
H      -0.466365    1.984776    0.851581
H       0.584855   -0.412493   -0.775986
H       0.441096   -0.360411    0.983790
H      -2.012753   -0.116840    0.802964
H      -2.327113   -0.901199   -1.708253
H      -1.033737   -2.451399    0.958664
