17

O       0.087634    1.414592    0.058400
C       0.019627    0.038638    0.020428
C       0.395969   -0.763793   -1.263220
C      -0.576435   -1.830734   -0.750026
C      -0.458447   -1.878014    0.756150
C       0.587325   -0.840527    1.177173
C      -1.313386   -0.784564    0.099010
C      -2.679086   -0.336278    0.219981
O      -2.967490    0.847244    0.279429
H      -0.821094    1.735460    0.139483
H       0.010350   -0.270677   -2.158190
H       1.445893   -1.042089   -1.401332
H      -1.041375   -2.634942   -1.305710
H      -0.835185   -2.717547    1.326199
H       1.644552   -1.121837    1.132429
H       0.348252   -0.406105    2.150289
H      -3.465465   -1.120177    0.256966
