19

C      -0.020438    1.509351    0.016736
C       1.528577    1.835207   -0.101247
C       1.940385    0.386788   -0.129681
O       3.082693   -0.391889   -0.477639
C       2.067806   -1.466141   -0.649105
C       1.642474   -1.770619    0.793209
C       1.130764   -0.346254    1.042796
C      -0.037520   -0.058842    0.076781
C       0.980130   -0.404259   -1.032202
H      -0.460603    1.943760    0.918514
H      -0.575067    1.891042   -0.845013
H       1.773941    2.378314   -1.017266
H       1.905401    2.400678    0.755190
H       2.404215   -2.255741   -1.318106
H       0.872553   -2.544313    0.867786
H       2.498106   -2.040291    1.416655
H       1.120162    0.048949    2.058496
H      -1.019234   -0.524576    0.183134
H       0.851314   -0.138077   -2.080564
