17

C      -0.030284    1.501704   -0.082360
C      -0.110556   -0.008709    0.039759
O      -0.418761   -0.578211    1.068915
N       0.221362   -0.694897   -1.102419
C       0.188571   -2.139473   -1.156901
C      -0.652630   -2.613694   -2.360856
O      -0.156519   -2.077434   -3.571604
C       1.548599   -2.703618   -1.276072
N       2.599057   -3.155462   -1.444594
H       0.972978    1.831136    0.207543
H      -0.225803    1.856418   -1.097928
H      -0.746307    1.947477    0.608591
H       0.408466   -0.213638   -1.967966
H      -0.256224   -2.477904   -0.214995
H      -0.693828   -3.710602   -2.376774
H      -1.667665   -2.226422   -2.238701
H       0.659816   -2.541103   -3.792495
