16

C       0.207559    1.083686   -0.491225
C       0.464449   -0.273541    0.109477
O       1.766095   -0.560244    0.611371
C       0.695099   -0.504075    1.564913
C       0.708391    0.587394    2.605447
C       0.307234   -1.856789    2.094088
O      -0.209754   -2.038456    3.167677
C       0.602338   -3.005857    1.207534
N       0.784917   -3.934841    0.544077
H       0.690897    1.883069    0.071493
H       0.594397    1.106262   -1.514958
H      -0.868647    1.278886   -0.535118
H       0.032149   -1.102465   -0.453946
H       1.010506    1.539949    2.171478
H      -0.282135    0.692200    3.055060
H       1.409386    0.333709    3.405632
