21

C      -0.051736    1.550346   -0.015305
C       0.021361    0.014195    0.012459
C       0.722997   -0.507006   -1.257798
C       1.056185   -2.011635   -1.196090
C       2.277866   -1.465823   -0.416591
O       2.145127   -0.205228   -1.149961
C       1.875757   -1.235841    1.022190
C       0.769183   -0.517546    1.236911
C       0.222117   -0.216491    2.602460
H       0.956660    1.967035   -0.089285
H      -0.628645    1.891850   -0.881654
H      -0.530596    1.954099    0.880778
H      -1.005595   -0.382379    0.031427
H       0.281935   -0.097191   -2.171798
H       0.375322   -2.690626   -0.679501
H       1.328090   -2.398555   -2.179937
H       3.261852   -1.919611   -0.548662
H       2.455146   -1.669000    1.831986
H       0.798004   -0.725271    3.380384
H       0.239233    0.857767    2.821953
H      -0.824882   -0.535288    2.688133
