11

O       0.102582    1.337306    0.171347
C       0.076013    0.010246    0.056975
N       0.070988   -0.710120   -1.034793
N       0.039452   -2.081585   -0.692437
C       0.027823   -2.064416    0.597598
O       0.000022   -2.950587    1.633118
C       0.006792   -2.141405    2.737493
N       0.035176   -0.868384    2.526913
N       0.048668   -0.817144    1.145488
H       0.118092    1.694271   -0.727394
H      -0.011946   -2.624071    3.700920
