20

C       0.170718    1.213404    0.293666
C      -0.146933   -0.217221   -0.164117
C      -1.655919   -0.483792   -0.239483
N       0.552970   -0.553930   -1.417685
C       1.816860   -1.285272   -1.337087
C       1.668825   -2.619963   -0.760721
C       1.551111   -3.709602   -0.267746
C       0.166875   -0.072752   -2.632844
O       0.759313   -0.244198   -3.680686
H       1.250615    1.375386    0.362851
H      -0.237378    1.948618   -0.407739
H      -0.264846    1.407925    1.278880
H       0.260447   -0.915158    0.574050
H      -2.172543    0.221918   -0.896565
H      -1.851270   -1.497531   -0.598554
H      -2.094618   -0.379993    0.757563
H       2.197002   -1.344737   -2.360941
H       2.547826   -0.712814   -0.748635
H       1.451756   -4.680632    0.150883
H      -0.771630    0.505792   -2.575591
