21

C       0.193007    1.528856   -0.170036
C      -0.042056    0.038916    0.078799
O       0.420344   -0.719576   -1.049765
C       1.320325   -1.716940   -0.617655
C       1.248774   -3.058660   -1.306056
C       2.408671   -2.119809   -1.576972
C       1.502745   -1.537386    0.848149
C       2.424378   -2.376749    1.672401
C       0.715872   -0.537341    1.244350
H       1.262629    1.735997   -0.266964
H      -0.308947    1.841041   -1.090417
H      -0.206750    2.124166    0.658010
H      -1.127038   -0.130221    0.190381
H       1.430549   -3.960105   -0.730150
H       0.493650   -3.154863   -2.078009
H       2.418764   -1.599558   -2.528188
H       3.388252   -2.375250   -1.186606
H       3.461120   -2.291440    1.325025
H       2.395237   -2.077639    2.722868
H       2.157546   -3.439030    1.616062
H       0.611789   -0.165449    2.256384
