20

C      -0.138407    1.553149    0.159448
C      -0.093697    0.045118    0.204265
N       1.143333   -0.598143   -0.263268
C       0.763234   -0.715546    1.163706
C       1.688721   -0.105399    2.222522
C       1.642475   -1.074109    3.441331
O       1.088147   -0.493811    4.622354
C       0.818093   -2.239761    2.941405
C       0.316958   -2.016130    1.725862
H       0.835984    1.980269    0.408178
H      -0.409139    1.899546   -0.843771
H      -0.881607    1.944886    0.862768
H      -1.032193   -0.439573   -0.067931
H       0.936878   -1.465162   -0.755028
H       2.699253   -0.016498    1.816755
H       1.375898    0.891825    2.543857
H       2.647690   -1.380377    3.749138
H       0.154657   -0.329377    4.446502
H       0.634623   -3.113108    3.556649
H      -0.336155   -2.685323    1.173221
