18

C      -0.011534    1.487345    0.083441
C       1.468822    1.897905   -0.036561
C       2.161598    1.875066    1.329973
O       2.253858    0.602881    1.988777
C       1.289503   -0.356501    2.043917
N       0.338206   -0.699652    1.286080
C       0.061009   -0.050789    0.004203
C       1.235114   -0.248824   -0.950969
C       2.016220    0.828348   -0.965006
H      -0.494548    1.835541    1.000776
H      -0.576090    1.870715   -0.772291
H       1.591300    2.915276   -0.426953
H       3.203147    2.197848    1.239910
H       1.649927    2.571718    2.008374
H       1.475809   -0.948535    2.941077
H      -0.868466   -0.484626   -0.374291
H       1.418027   -1.187509   -1.459403
H       2.957460    0.930114   -1.493352
