21

C       0.451319    1.427842   -0.069473
O       0.810723    0.068093   -0.133520
C       0.037253   -0.658126   -1.064761
C       0.440763   -2.095490   -0.992799
C       0.568711   -2.998501    0.241395
C       1.662069   -3.826416   -0.536712
C       1.413869   -5.308065   -0.779848
C       1.453854   -2.870804   -1.726907
O       0.065194   -2.935792   -2.092678
H       0.597049    1.935263   -1.036202
H      -0.600703    1.558615    0.229982
H       1.093306    1.900411    0.677626
H      -1.038405   -0.556073   -0.834925
H       0.187402   -0.289153   -2.092279
H       0.970979   -2.475411    1.110466
H      -0.344160   -3.533990    0.516057
H       2.646195   -3.660895   -0.087020
H       0.452384   -5.453395   -1.280278
H       2.197068   -5.743800   -1.410192
H       1.397117   -5.864519    0.163229
H       2.150350   -2.574106   -2.503991
