19

C       0.034767    1.542733    0.098418
O       1.484067    1.433862   -0.053097
C       1.280170    0.143221   -0.698213
C       2.135749   -1.075632   -0.552876
C       1.459245   -2.172574   -0.186960
C       0.028805   -2.045043    0.322666
C       0.054120   -0.826702    1.293639
C      -0.069589    0.013215    0.006328
C      -0.888127   -1.150594   -0.601442
H      -0.243854    2.015980    1.044511
H      -0.411201    2.091785   -0.743639
H       1.136435    0.339293   -1.776949
H       3.170138   -1.094651   -0.880311
H       1.928344   -3.152174   -0.176407
H      -0.379722   -2.994789    0.668728
H      -0.862133   -0.751999    1.888343
H       0.934439   -0.697360    1.924988
H      -0.830524   -1.294202   -1.683550
H      -1.930405   -1.195084   -0.272963
