12

N      -0.030005    1.345550    0.010073
C       1.277576    1.806085   -0.000109
C       2.170003    0.745384   -0.014804
C       1.340805   -0.399060   -0.013202
C       0.022691   -0.020724    0.001807
N      -0.814298   -1.110649    0.003769
C       0.031706   -2.099715   -0.010084
O       1.363037   -1.766970   -0.021195
H      -0.852913    1.921126    0.021409
H       1.478128    2.865365    0.003927
H       3.244275    0.822163   -0.024850
H      -0.190167   -3.154710   -0.013903
