23

C      -0.109655    1.538095    0.015476
C      -0.014027    0.021310    0.034275
C      -1.209084   -0.625905   -0.647928
C       1.356863   -0.636551   -0.189378
C       2.539077    0.132285   -0.434950
C       3.537102    0.771933   -0.647757
C       0.680777   -0.677753    1.190222
C       1.276795    0.143128    2.322021
C       0.188080   -2.031679    1.676654
H       0.808159    2.027922    0.340560
H      -0.319317    1.887494   -1.001699
H      -0.929356    1.881847    0.657138
H      -1.319775   -0.232040   -1.664541
H      -1.124190   -1.711246   -0.726127
H      -2.136247   -0.401193   -0.106970
H       1.323786   -1.575624   -0.737406
H       4.418748    1.331421   -0.838746
H       1.787850    1.041160    1.975136
H       0.498556    0.442958    3.033543
H       2.012210   -0.455115    2.871526
H       0.996520   -2.562332    2.192132
H      -0.634576   -1.913671    2.392242
H      -0.162946   -2.677173    0.869550
