17

C      -0.033898    1.464403    0.105253
C       0.028240   -0.030293   -0.049936
C       0.658279   -0.621048   -1.330270
C       0.078495   -2.043757   -1.265983
O       0.288648   -2.977683   -1.988791
C      -0.826983   -1.987700   -0.022229
C       0.118848   -1.944289    1.199027
O       0.680247   -0.630099    1.081855
O      -1.269986   -0.626382   -0.055842
H       0.977396    1.873884    0.162394
H      -0.549589    1.912661   -0.747227
H      -0.569427    1.714931    1.023418
H       0.306215   -0.102861   -2.227836
H       1.749821   -0.633214   -1.330007
H      -1.653714   -2.692725    0.008377
H      -0.438980   -2.030437    2.138065
H       0.905396   -2.705726    1.169286
