13

N      -0.104281    1.037796   -0.784221
C       0.018152    0.059638   -0.000541
C      -1.145868   -0.519719    0.767555
C      -1.099917   -2.039042    0.819278
O      -2.040754   -2.767840    0.728610
O       0.160297   -2.546875    0.974173
C       1.189488   -1.598709    1.190041
O       1.209802   -0.591279    0.202401
H       0.795496    1.282747   -1.201695
H      -1.109725   -0.152932    1.803757
H      -2.086842   -0.190694    0.332886
H       1.086209   -1.154140    2.189204
H       2.132733   -2.137190    1.111477
