20

C      -0.031414    1.464183   -0.376008
C       0.049795    0.038980    0.120265
N       1.236077   -0.840069   -0.015981
C       2.453140    0.009468    0.248562
C       1.973514    0.384946    1.670937
C       0.708844   -0.425905    1.362931
C       0.084526   -1.412590    2.319787
C       1.089027   -2.434237    2.817831
O       1.317432   -2.665344    3.977527
H       0.779395    2.098678   -0.013201
H      -0.017437    1.489801   -1.471124
H      -0.973704    1.913622   -0.046082
H      -0.839604   -0.538240   -0.129978
H       3.341660   -0.624312    0.238585
H       2.596986    0.822333   -0.469006
H       2.584294   -0.066379    2.455661
H       1.831394    1.442339    1.912717
H      -0.358021   -0.903665    3.182941
H      -0.710914   -1.960514    1.797168
H       1.623956   -2.971805    2.003420
