21

C      -0.415837    1.389570   -0.169492
C       0.034345   -0.049063    0.008307
O       1.167728   -0.368765   -0.839328
C       2.029688   -0.619301    0.279875
C       2.676189   -1.997962    0.216118
C       3.097324    0.457780    0.435117
O       3.096566    1.518734   -0.130628
C       0.834732   -0.444213    1.282204
C       0.932900    0.521092    2.456298
H       0.419441    2.081350   -0.042101
H      -0.812130    1.524250   -1.180672
H      -1.210148    1.640979    0.542017
H      -0.800110   -0.729370   -0.205753
H       3.317177   -2.082205   -0.667788
H       3.288408   -2.188349    1.104387
H       1.905143   -2.769725    0.152867
H       3.904950    0.189250    1.157245
H       0.523309   -1.427177    1.647523
H       1.263640    1.517272    2.151774
H      -0.042381    0.627561    2.942712
H       1.633623    0.149876    3.211940
