25

C       0.714568   -0.971422    1.316093
C      -0.010465   -0.326225    0.128423
C       0.670533   -0.555393   -1.229566
C       2.023747    0.157571   -1.303742
C       0.796130   -2.019798   -1.704516
C      -0.542752   -2.663421   -1.927761
C      -0.011509   -1.713885   -2.965157
C      -0.186681   -0.250127   -2.535895
C      -1.599137    0.319175   -2.442770
H       0.838796   -2.048420    1.160060
H       1.707428   -0.540984    1.477146
H       0.144649   -0.833603    2.240307
H      -1.033532   -0.715123    0.097157
H      -0.108082    0.754292    0.300026
H       2.714531   -0.197659   -0.531657
H       2.502114   -0.016600   -2.273283
H       1.904838    1.239852   -1.175296
H       1.700508   -2.611640   -1.614312
H      -0.505801   -3.712103   -2.206566
H      -1.402829   -2.408971   -1.315016
H       0.175707   -2.042152   -3.981149
H       0.404673    0.402373   -3.186597
H      -2.267495   -0.310451   -1.848209
H      -1.598662    1.319473   -1.995743
H      -2.037911    0.405763   -3.443284
