21

C      -0.233593    1.595426   -0.109645
C      -0.097183    0.079395   -0.028775
C       0.922013   -0.606293   -1.062327
C       1.933064   -0.695712    0.116030
C       2.647828   -1.623623    1.196982
C       1.927429   -0.550539    2.164882
C       2.675132    0.713776    1.741085
C       2.682840    0.617865    0.411313
C       0.768902   -0.644858    1.085830
H       0.727332    2.110766   -0.118300
H      -0.777617    1.874055   -1.019691
H      -0.804038    1.973271    0.745835
H      -1.100775   -0.354887   -0.076921
H       0.548549   -1.573925   -1.406632
H       1.219080   -0.007179   -1.929504
H       2.240262   -2.636267    1.273283
H       3.741116   -1.633931    1.224091
H       1.780461   -0.752644    3.227092
H       3.116293    1.450572    2.397102
H       3.126321    1.261740   -0.336466
H       0.321110   -1.640599    1.184703
