20

C      -0.153981    1.689506    0.173820
C      -0.029329    0.165274    0.038275
C       0.771775   -0.439765    1.207830
C       2.214080    0.015427    1.215355
O       2.793600    0.474586    2.165366
C      -1.406391   -0.503489   -0.077900
C      -2.109108   -0.174539   -1.396880
N      -3.469377   -0.269497   -1.361627
O      -1.504533    0.125946   -2.408755
H       0.829526    2.165888    0.236900
H      -0.674618    2.112272   -0.688741
H      -0.706803    1.958930    1.081955
H       0.500064   -0.050300   -0.897727
H       0.324919   -0.199823    2.178514
H       0.788439   -1.535406    1.105956
H       2.734286   -0.115642    0.236315
H      -1.295922   -1.595869   -0.043102
H      -2.043092   -0.230572    0.773395
H      -3.970713   -0.542144   -0.535083
H      -3.980933   -0.131937   -2.217897
