18

N      -0.160236    1.522400    0.001709
C      -0.068019    0.077359   -0.073888
C      -1.411753   -0.627362   -0.022940
C      -2.239868   -0.663975   -1.297364
C      -1.334783   -1.810486   -0.953911
N      -0.040715   -1.854814   -1.631522
C       0.621717   -0.567771   -1.361785
C       0.532411    0.336113   -2.520516
N       0.470269    1.077616   -3.405518
H       0.758952    1.951621   -0.042970
H      -0.692252    1.887701   -0.782925
H       0.522936   -0.255907    0.788362
H      -1.917451   -0.670264    0.933980
H      -3.305200   -0.825026   -1.176109
H      -1.984592   -0.024350   -2.135167
H      -1.753769   -2.781900   -0.721290
H       0.516460   -2.598436   -1.226277
H       1.688423   -0.729433   -1.178703
