20

C       0.016931    1.527221   -0.008203
C      -0.045624   -0.012596   -0.021802
C      -1.513897   -0.492710   -0.017657
O      -2.245986    0.000146    1.075457
C       0.783047   -0.620997   -1.171652
C       2.171996   -0.782516   -0.544190
O       1.932774   -0.986414    0.863740
C       0.686923   -0.564011    1.194419
N       0.194774   -0.628578    2.361026
H       1.045519    1.895202    0.062024
H      -0.425530    1.924463   -0.927875
H      -0.550232    1.913080    0.840156
H      -2.010307   -0.134930   -0.928211
H      -1.520500   -1.595840   -0.051716
H      -1.725957   -0.231686    1.865378
H       0.381780   -1.601414   -1.451380
H       0.800734    0.006533   -2.065305
H       2.730155   -1.646053   -0.911904
H       2.791721    0.113091   -0.667218
H       0.851320   -1.034518    3.027879
