17

C      -0.076619   -1.196726   -0.017460
C      -0.032325    0.004698    0.017112
C       0.030441    1.438610    0.010882
N       0.580884    2.109904    1.223606
C       1.330488    2.176380   -0.015108
C       2.720332    1.583863   -0.250459
C       2.892680    2.603186   -1.417358
C       1.650468    3.388993   -0.897095
H      -0.120584   -2.257471   -0.031445
H      -0.802999    1.929544   -0.488638
H       0.073610    2.978930    1.381453
H       3.391805    1.780969    0.589982
H       2.761355    0.520538   -0.496051
H       3.834561    3.152928   -1.454097
H       2.713540    2.149559   -2.394657
H       0.897874    3.695252   -1.628738
H       1.934478    4.261938   -0.299408
