20

C      -0.054306    1.565635   -0.119757
C       0.114110    0.060764   -0.023190
N       1.352044   -0.589913   -0.707526
C       2.130883   -0.129722    0.541062
C       0.819767   -0.650027    1.170805
C       0.416029   -0.730083    2.621954
C       1.025834   -1.823478    0.140856
C      -0.095896   -2.742991   -0.252379
O      -0.892265   -2.576895   -1.142229
H      -0.176802    1.850969   -1.169709
H      -0.965750    1.863023    0.410062
H       0.772754    2.147379    0.292408
H      -0.800904   -0.416258   -0.374046
H       3.045176   -0.703493    0.718439
H       2.339626    0.938943    0.564484
H       0.382920    0.270053    3.067861
H      -0.576450   -1.179300    2.734759
H       1.127777   -1.330089    3.199258
H       1.909409   -2.443835    0.341184
H      -0.134267   -3.660796    0.382121
