17

C      -0.162030    1.551681    0.035495
C       0.076775    0.041127   -0.031404
C       0.896340   -0.461657   -1.240951
C       1.959705   -1.347587   -0.635284
C       2.924974   -2.100946   -1.458574
O       2.931680   -2.071824   -2.667455
C       1.931975   -1.357020    0.708361
C       0.842128   -0.476081    1.202509
O       0.598849   -0.204517    2.354693
H       0.783500    2.101259   -0.025466
H      -0.801497    1.886804   -0.786097
H      -0.642060    1.811070    0.982582
H      -0.896136   -0.467271   -0.012297
H       0.300958   -1.011643   -1.976168
H       1.365593    0.362025   -1.792231
H       3.658251   -2.709177   -0.887132
H       2.601074   -1.896321    1.368453
