17

C       0.199337    1.616261   -0.167066
C       0.094325    0.118168    0.021920
C       1.249932   -0.830748   -0.117190
O       2.553867   -0.258743   -0.109870
C       2.813457    0.287648    1.102448
O       3.770465    0.970093    1.335212
C       1.685272   -0.039085    2.098346
O       1.308037    1.122606    2.803730
C       0.605903   -0.644773    1.237952
H       1.154861    2.020945    0.167678
H       0.078332    1.872323   -1.224596
H      -0.584354    2.124341    0.401621
H      -0.834225   -0.304221   -0.355899
H       1.212690   -1.737880   -0.705791
H       2.069029   -0.808444    2.789267
H       2.126886    1.603444    2.987925
H      -0.019934   -1.416709    1.667026
