12

O      -0.129964    1.375393    0.069297
N       0.039402   -0.003972    0.183847
C      -1.050073   -0.614763    0.021136
C      -2.504082   -0.335676   -0.257034
O      -2.776037   -1.763209   -0.186771
C      -1.391781   -2.094814    0.069841
C      -0.802428   -2.943138   -0.970393
N      -0.333033   -3.612564   -1.786285
H       0.765168    1.709412    0.200250
H      -3.039768    0.229943    0.513677
H      -2.728161    0.084151   -1.244541
H      -1.258877   -2.574078    1.047928
