21

C      -0.093699    1.548894   -0.055928
C       0.009579    0.018806    0.063547
C       0.626376   -0.561344   -1.228751
C       0.930643   -2.040455   -1.111426
O       0.523076   -2.865759   -1.894611
C       1.804389   -2.403220    0.079921
C       1.566582   -1.517881    1.274606
C       0.767655   -0.446604    1.300313
C       0.538147    0.312105    2.582799
H       0.900532    2.008383   -0.093634
H      -0.622364    1.820078   -0.975107
H      -0.639342    1.989869    0.782184
H      -1.018966   -0.366861    0.148064
H      -0.025584   -0.398178   -2.090430
H       1.577221   -0.041262   -1.416226
H       1.636202   -3.458842    0.321094
H       2.855475   -2.337794   -0.244549
H       2.070338   -1.819183    2.190961
H       1.048338   -0.169397    3.420784
H       0.895285    1.346267    2.519420
H      -0.531264    0.366064    2.825380
