18

O      -0.085395    1.422430   -0.148701
C      -0.001321    0.009831   -0.006581
C      -1.400345   -0.543383   -0.016814
C      -2.336763   -0.515942   -1.271576
C      -3.091065   -1.566671   -0.422154
C      -1.705033   -2.076309    0.045961
O      -3.565011   -0.810167    0.702471
C      -2.390275   -0.040134    1.048025
H       0.806849    1.780633   -0.138592
H       0.581249   -0.440070   -0.826357
H       0.495794   -0.267070    0.938724
H      -2.861975    0.412277   -1.504730
H      -1.857463   -0.932238   -2.159960
H      -3.885977   -2.209339   -0.796544
H      -1.168613   -2.645169   -0.716312
H      -1.657428   -2.576266    1.016860
H      -2.074393   -0.271532    2.073090
H      -2.596550    1.031145    0.967811
