15

N       0.013453    1.164142   -0.363865
C       0.011326   -0.078943    0.150332
O       0.943555   -0.643670    0.695437
C      -1.364595   -0.759376   -0.026915
O      -2.301796   -0.197534   -0.573533
N      -1.369787   -2.001752    0.490052
C      -2.525402   -2.879779    0.414050
C      -2.195535   -4.190231   -0.138280
C      -1.913879   -5.274583   -0.570793
H       0.844440    1.729077   -0.328613
H      -0.835311    1.500060   -0.792074
H      -0.494307   -2.319869    0.884532
H      -2.976312   -3.002233    1.408121
H      -3.262530   -2.363977   -0.210383
H      -1.672059   -6.231031   -0.964225
