17

C       0.681794    1.224526    0.064383
C      -0.328890    0.114759   -0.119648
O      -1.205485   -0.116860    0.688849
C      -0.200370   -0.716266   -1.355045
C      -1.465954   -1.356895   -1.914471
C      -0.439444   -2.264639   -1.339360
N       0.556200   -2.733511   -2.264409
C       1.266492   -1.631083   -2.704328
N       0.894341   -0.485510   -2.258295
H       1.695931    0.812630    0.079062
H       0.647997    1.908677   -0.789494
H       0.473281    1.756964    0.992791
H      -2.346234   -1.189476   -1.305297
H      -1.599565   -1.333876   -2.990753
H      -0.619292   -2.834462   -0.436254
H       1.018484   -3.617171   -2.117862
H       2.074283   -1.766279   -3.416014
