20

C      -0.020169    1.486919   -0.028036
C      -0.046352   -0.026899    0.095927
O      -0.057438   -0.577841    1.173051
C      -0.043927   -0.799948   -1.214649
C       1.179473   -0.544518   -2.078292
C      -0.695597   -2.114831   -1.361305
C      -1.921981   -2.307438   -0.473941
C      -2.453594   -0.986540   -1.081467
N      -1.283667   -0.866549   -2.035794
H       0.988030    1.818816   -0.301268
H      -0.696204    1.830440   -0.817081
H      -0.286217    1.935197    0.930096
H       2.095175   -0.848093   -1.559896
H       1.098235   -1.114487   -3.007189
H       1.264481    0.512491   -2.346228
H      -0.226383   -2.898599   -1.949743
H      -2.518951   -3.169591   -0.776174
H      -1.738610   -2.344118    0.599773
H      -3.372705   -1.099153   -1.658615
H      -2.572048   -0.135019   -0.403426
