17

O       0.193549    1.383411   -0.237529
C       0.057927    0.008825   -0.013925
C       1.096038   -0.671925   -0.891242
C       2.503556   -0.216490   -0.565138
O       3.363190   -0.015898   -1.381693
C      -0.167055   -0.554611    1.441971
C      -1.599415    0.034192    1.449628
C      -1.358991   -0.660631    0.086911
O      -0.723882   -1.774827    0.822927
H      -0.421197    1.874731    0.315572
H       1.036976   -1.752703   -0.725977
H       0.903290   -0.466485   -1.947926
H       2.711678   -0.102501    0.524598
H       0.530250   -0.684317    2.270399
H      -2.294465   -0.492278    2.103468
H      -1.750960    1.117026    1.495292
H      -2.071191   -0.916817   -0.698169
