16

N       0.577144    0.058644   -0.299915
C      -0.577360    0.775873   -0.227345
O      -0.665026    1.973464   -0.408437
C      -1.800734   -0.048164    0.112641
O      -1.638790   -1.459727    0.273596
C      -2.004840   -0.690589    1.427571
C      -1.027569   -0.605672    2.548779
C      -1.444756   -0.069462    3.851618
O      -1.289448   -1.473100    3.656562
H       1.408561    0.523001   -0.626802
H       0.533864   -0.947535   -0.293738
H      -2.684586    0.269616   -0.437647
H      -3.033736   -0.848092    1.752354
H       0.018692   -0.532349    2.261192
H      -0.703875    0.406081    4.491685
H      -2.469019    0.274046    3.991028
