21

C      -0.630877    1.788948   -0.648798
C      -0.272881    0.334027   -0.330851
C      -1.456055   -0.591161   -0.005966
C      -0.943969   -2.035707    0.106685
O      -1.955082   -2.992755    0.371813
N      -2.086152   -0.207992    1.260357
C      -3.133223    0.809567    1.209775
C      -3.483381   -0.611471    1.452578
H       0.262515    2.345339   -0.949554
H      -1.351709    1.853381   -1.471735
H      -1.059843    2.300159    0.216689
H       0.259166   -0.096211   -1.189051
H       0.424555    0.305967    0.515130
H      -2.187399   -0.553176   -0.836153
H      -0.496471   -2.326673   -0.849480
H      -0.153057   -2.072395    0.871053
H      -2.235623   -2.865754    1.282826
H      -3.133230    1.528809    2.023952
H      -3.399021    1.221916    0.238615
H      -3.972427   -1.151045    0.645377
H      -3.743180   -0.949001    2.452871
