18

C      -0.584112    1.425427   -0.319444
C      -0.321367   -0.069433   -0.273151
O      -1.544340   -0.733542   -0.003305
C      -1.434520   -2.135440    0.036892
C      -2.836054   -2.709796    0.137973
O      -3.567801   -2.490391   -1.069751
C      -4.248406   -1.328719   -1.178875
O      -4.801703   -1.006724   -2.186665
H       0.343085    1.966874   -0.528486
H      -1.309402    1.662587   -1.102662
H      -0.982563    1.776129    0.636766
H       0.092515   -0.422525   -1.231497
H       0.417437   -0.311718    0.508674
H      -0.945607   -2.520276   -0.872263
H      -0.839709   -2.466491    0.905487
H      -2.796096   -3.792362    0.279541
H      -3.361051   -2.262545    0.991091
H      -4.246433   -0.740080   -0.244525
