21

C      -0.153668    1.528058    0.032472
C       0.053665    0.014778    0.047571
C       0.973602   -0.542129   -1.095031
C       2.011599   -1.295229   -0.244214
C       1.112559   -2.001288    0.829048
C       0.834850   -0.536013    1.266029
C       2.319138   -0.260655    0.891194
C       3.115271   -2.033224   -0.923130
O       3.276784   -2.089836   -2.117913
H       0.795983    2.071298    0.083231
H      -0.661493    1.842876   -0.885306
H      -0.768323    1.851077    0.879986
H      -0.930033   -0.467228    0.006057
H       0.449792   -1.205813   -1.786945
H       1.435805    0.253325   -1.686345
H       0.276211   -2.603157    0.461545
H       1.695479   -2.565200    1.561322
H       0.441166   -0.298682    2.255474
H       3.019406   -0.648880    1.634712
H       2.616461    0.745043    0.584119
H       3.816005   -2.554089   -0.227844
