19

C      -0.361050    1.500827   -0.145891
N      -0.028356    0.095069    0.029110
C       0.123868   -0.359618    1.412070
C      -1.227024   -0.791577    2.009688
N      -1.607259   -2.040963    1.632874
O      -1.877638   -0.059663    2.732732
C       0.033062   -0.838286   -0.964376
C      -0.046888   -0.359079   -2.404266
O       0.160307   -2.033749   -0.707971
H      -0.639202    1.709114   -1.177123
H      -1.205265    1.763265    0.500530
H       0.488094    2.141724    0.123580
H       0.836513   -1.186223    1.423600
H       0.501584    0.469129    2.013011
H      -1.104446   -2.498879    0.882297
H      -2.539849   -2.340462    1.869578
H       0.654829    0.452929   -2.613800
H       0.183056   -1.211823   -3.041997
H      -1.054000   -0.004437   -2.647891
