18

C       0.022935    1.320956   -0.042415
C       1.404818    0.720940   -0.041098
C       1.764839    0.210545    1.364286
C       0.488711   -0.707460    1.354367
C       0.172504   -0.178381   -0.047027
N      -0.195087   -0.961420   -1.170750
C       0.499328   -0.741270   -2.213731
O       1.522554    0.126148   -2.410463
C       2.246255    0.691864   -1.278037
H      -0.346219    1.831479    0.844004
H      -0.309381    1.749344   -0.982060
H       2.689699   -0.371263    1.380462
H       1.820886    0.972260    2.148209
H       0.745711   -1.768335    1.349992
H      -0.267506   -0.529791    2.125309
H       0.288026   -1.270149   -3.140963
H       2.582103    1.670784   -1.635344
H       3.132320    0.066825   -1.112294
