21

O       0.011319    1.425990   -0.116614
C       0.021924    0.013400    0.012314
C       0.656617   -0.520638    1.338027
C      -0.492445   -1.342811    1.973820
O      -0.086095   -2.342285    2.880369
C      -1.560049   -0.360084    2.507195
C      -2.185100    0.222503    1.202102
C      -1.422749   -0.526597    0.081845
C      -1.188450   -1.908907    0.720610
H       0.922878    1.727850   -0.170950
H       0.531316   -0.434215   -0.853337
H       1.515368   -1.171826    1.149956
H       0.982779    0.309230    1.974477
H       0.269447   -1.908852    3.663180
H      -2.293874   -0.913769    3.100750
H      -1.123801    0.411793    3.150327
H      -3.254798    0.002789    1.145860
H      -2.059957    1.302253    1.115278
H      -1.929447   -0.510920   -0.884215
H      -0.536431   -2.566184    0.137277
H      -2.112586   -2.443583    0.957414
