19

C      -0.252991    1.615217    0.103071
C      -0.158220    0.089470    0.040097
C       0.796414   -0.491336    1.102869
C       0.902583   -1.972719    1.089489
C       1.874057   -2.874826    0.772989
N       3.197441   -2.673651    0.379043
N       1.395331   -4.164542    0.964715
C       0.180439   -3.991749    1.376216
O      -0.206249   -2.710877    1.477238
H       0.724856    2.081923   -0.061905
H      -0.938636    2.002836   -0.656502
H      -0.616202    1.949418    1.081308
H      -1.151141   -0.353026    0.180344
H       0.179567   -0.226055   -0.954663
H       1.803722   -0.080879    0.960416
H       0.471117   -0.152005    2.096426
H       3.319857   -1.903673   -0.264318
H       3.586427   -3.522062   -0.011208
H      -0.543494   -4.746505    1.640925
