15

C      -0.036431    1.508477   -0.021099
C      -0.010815    0.005254   -0.000429
N      -0.030020   -0.627347   -1.175911
C      -0.007101   -1.962841   -1.188748
C       0.035934   -2.749579   -0.042004
C       0.056217   -2.108387    1.187309
C       0.032742   -0.711165    1.216922
C       0.052749   -0.016380    2.464909
N       0.068528    0.553530    3.472997
H       0.856274    1.924310    0.458498
H      -0.083394    1.854471   -1.053634
H      -0.899190    1.896511    0.530731
H      -0.024288   -2.427014   -2.171910
H       0.052817   -3.830581   -0.112280
H       0.089548   -2.666737    2.115873
