21

C      -0.076518    1.491488    0.010664
C      -0.019953   -0.039863    0.004680
C      -1.408097   -0.602424   -0.277202
C       1.183774   -0.619749   -0.824404
C       2.085955   -0.393030    0.418694
C       0.778423   -0.642722    1.217847
O       0.508705   -2.045887    1.291879
C       1.043352   -2.745127    0.185294
O       0.968800   -2.019809   -1.026181
H       0.885657    1.970044    0.207319
H      -0.435211    1.861038   -0.956640
H      -0.779435    1.841546    0.775038
H      -1.773656   -0.245831   -1.247000
H      -1.419688   -1.691101   -0.291629
H      -2.117913   -0.265142    0.486800
H       1.441686   -0.190678   -1.795310
H       2.933892   -1.059531    0.579502
H       2.429828    0.636157    0.498518
H       0.644187   -0.235886    2.222707
H       2.089971   -3.018935    0.389950
H       0.452878   -3.656720    0.057840
