17

C      -0.013407    1.463164    0.059706
C      -0.031376   -0.042662    0.011910
C      -1.255324   -0.825524   -0.437370
N      -0.810316   -2.218045   -0.320267
C       0.635521   -2.279696   -0.605144
C       0.144939   -2.318575    0.799007
C       0.689905   -0.883658    1.045811
C       1.191107   -0.844109   -0.387748
H       0.953138    1.840339    0.407352
H      -0.199998    1.892360   -0.931114
H      -0.782855    1.846277    0.739354
H      -2.125362   -0.658803    0.207381
H      -1.537678   -0.612392   -1.474344
H       1.023994   -3.048576   -1.260536
H       0.054363   -3.125425    1.514838
H       1.145104   -0.500121    1.947925
H       2.102346   -0.424605   -0.789962
