23

C      -0.146095    1.421301    0.149452
C      -0.165155   -0.085014   -0.121633
C       0.916122   -0.527668   -1.119165
C       0.889117   -2.021189   -1.364532
C       0.033293   -2.640795   -2.417012
C       1.552040   -2.669412   -2.589086
C       2.221197   -1.848061   -3.673299
C       2.186099   -3.987068   -2.308979
O       1.777943   -4.797173   -1.509291
H       0.817936    1.737961    0.563044
H      -0.313218    1.992519   -0.770738
H      -0.924223    1.707223    0.863843
H      -0.030253   -0.630882    0.820950
H      -1.149257   -0.381779   -0.505395
H       0.777135    0.017713   -2.060245
H       1.902506   -0.232825   -0.735834
H       1.004993   -2.627509   -0.469039
H      -0.443968   -3.590242   -2.201799
H      -0.509399   -1.984246   -3.090458
H       1.675390   -0.925546   -3.880058
H       3.245005   -1.571359   -3.396270
H       2.272788   -2.411874   -4.611668
H       3.104876   -4.193535   -2.905086
