25

C       0.045706    1.632711    0.024439
C       0.046243    0.100937   -0.033026
C       0.627940   -0.552251    1.223893
C      -0.161106   -0.291860    2.535156
C       0.182559   -1.498365    3.371928
C       0.733364   -2.480482    2.655141
C       1.186883   -3.816673    3.155574
C       0.812948   -2.102452    1.181997
C      -0.237684   -2.867019    0.353959
H       1.059764    2.023265    0.167355
H      -0.349218    2.063539   -0.901027
H      -0.569607    2.003919    0.850613
H      -0.978741   -0.254387   -0.196802
H       0.625122   -0.223327   -0.907992
H       1.631700   -0.133785    1.379793
H       0.121765    0.653987    3.011118
H      -1.245384   -0.228026    2.352504
H      -0.022220   -1.553529    4.436758
H       1.031391   -3.916142    4.233546
H       0.652241   -4.637783    2.661796
H       2.253756   -3.974938    2.950109
H       1.799705   -2.349329    0.766124
H      -1.253403   -2.659920    0.707260
H      -0.185297   -2.601250   -0.706175
H      -0.077092   -3.947437    0.428013
