21

C      -0.014950    1.570354    0.016163
C       0.025526    0.040387    0.001441
C       0.678391   -0.505756   -1.278607
C       0.615858   -2.039662   -1.338679
C       0.938866   -2.675577   -0.019577
C       1.009491   -1.998578    1.136690
C       0.753569   -0.515918    1.236097
C       1.342356   -2.738013    2.366432
O       1.421664   -2.240676    3.467778
H       0.996654    1.989619   -0.040439
H      -0.585596    1.961112   -0.832938
H      -0.478299    1.946482    0.934256
H      -1.009673   -0.330811    0.030673
H       0.198594   -0.077838   -2.165710
H       1.728381   -0.184186   -1.305114
H      -0.387338   -2.370564   -1.648894
H       1.293646   -2.426739   -2.110392
H       1.115784   -3.750599   -0.010802
H       1.711640    0.006801    1.372536
H       0.186962   -0.313652    2.151568
H       1.522594   -3.826926    2.213111
