21

C       0.038746    1.473914    0.006883
C       0.030270   -0.037342   -0.022488
C      -1.295429   -0.832377   -0.201072
C      -0.383918   -1.948703   -0.728328
C       0.692770   -2.213844    0.364198
C       1.850587   -1.616891   -0.505880
C       2.294989   -0.740124    0.677474
C       0.798362   -0.803700    1.077951
C       0.663792   -0.890010   -1.209453
H       1.057155    1.875080    0.046073
H      -0.447030    1.891315   -0.881828
H      -0.499449    1.850585    0.885397
H      -1.907315   -1.019534    0.689156
H      -1.921235   -0.405538   -0.991839
H      -0.736087   -2.783486   -1.333496
H       0.770043   -3.124724    0.955632
H       2.535996   -2.212260   -1.108947
H       2.928435   -1.297437    1.374631
H       2.744683    0.239584    0.483060
H       0.474081   -0.644301    2.107862
H       0.700283   -0.462988   -2.210836
