17

C       0.010078    1.517781   -0.008906
C      -0.057575    0.018881    0.016097
C      -1.218436   -0.690405   -0.029215
C      -1.171566   -2.123237    0.002497
N      -2.369588   -2.811425    0.011066
C       0.039581   -2.770604    0.073203
C       1.284977   -2.057427    0.126649
O       2.412707   -2.525647    0.191007
N       1.127171   -0.648568    0.090374
H       0.590584    1.870779   -0.869171
H      -0.989914    1.949909   -0.070157
H       0.496239    1.903535    0.894632
H      -2.168097   -0.172583   -0.074878
H      -3.161982   -2.342146   -0.398560
H      -2.323374   -3.791877   -0.219727
H       0.102179   -3.852131    0.094655
H       1.999599   -0.139857    0.123968
