19

C      -0.020131    1.594280   -0.048789
C       0.017982    0.063473   -0.037436
C       0.778449   -0.490503   -1.262813
O       1.000406   -1.884255   -1.161969
C       1.858644   -2.230652   -0.092220
C       1.541300   -1.496716    1.179266
C       0.700316   -0.464939    1.210122
C      -1.401222   -0.513524   -0.037115
O      -2.398710    0.115753    0.206688
H       0.988911    2.007345    0.040150
H      -0.469783    1.967293   -0.974456
H      -0.626940    1.965710    0.780060
H       0.206143   -0.339462   -2.183705
H       1.731553    0.053593   -1.361742
H       1.748702   -3.312097    0.048691
H       2.913715   -2.052285   -0.370383
H       2.050035   -1.834368    2.078278
H       0.469015    0.042478    2.143058
H      -1.437623   -1.599484   -0.267126
