18

C      -0.315911    1.483786   -0.015254
C       0.024300    0.019481    0.000763
C       1.160961   -0.546880   -0.870195
O       1.654659   -1.353143    0.228825
C       0.658371   -0.833243    1.139088
C       1.231406   -0.388173    2.455793
C      -0.646567   -1.647879    1.069234
O      -1.139807   -0.838132   -0.027431
H       0.585150    2.097808    0.077498
H      -0.810020    1.744131   -0.958255
H      -0.999594    1.733330    0.801105
H       0.827923   -1.147587   -1.723294
H       1.914898    0.181552   -1.196348
H       2.032888    0.340536    2.304920
H       0.459816    0.060396    3.089011
H       1.654415   -1.246377    2.990322
H      -0.514963   -2.700332    0.796165
H      -1.301993   -1.567475    1.946370
