20

C       0.040568    1.447765    0.054897
C       1.301164    0.688817   -0.063633
C       1.720800    0.077921    1.276862
C       2.044712    1.035341    2.442918
C       1.051304    0.859428    3.597940
O      -0.290161    0.871909    3.134634
C      -0.611549   -0.328789    2.444393
C       0.314265   -0.612627    1.264390
N      -0.040794   -0.022302   -0.078507
H      -0.239622    1.915953    0.993295
H      -0.314111    1.956147   -0.836642
H       1.925605    0.735808   -0.950535
H       2.511776   -0.663447    1.150681
H       3.063499    0.881127    2.815379
H       1.986844    2.070779    2.091263
H       1.248010   -0.082014    4.138560
H       1.139253    1.680250    4.315476
H      -0.570002   -1.173339    3.152832
H      -1.645147   -0.225945    2.098666
H       0.395645   -1.693157    1.122735
