17

C       0.157968    1.756551   -0.096009
C       0.015733    0.240273    0.075453
C       0.585709   -0.547569   -1.131207
C      -0.098414   -0.240365   -2.384305
N      -0.653291    0.018699   -3.364550
C       0.712664   -0.234424    1.333254
C      -0.014964   -0.506919    2.578040
O       0.439269   -1.575402    1.742911
H       1.212188    2.048148   -0.167981
H      -0.346628    2.095941   -1.004392
H      -0.278751    2.286132    0.755730
H      -1.045944   -0.017481    0.163577
H       1.653579   -0.327783   -1.254616
H       0.498305   -1.620874   -0.932761
H       1.766638    0.044835    1.410583
H       0.493297   -0.414759    3.536416
H      -1.094546   -0.365755    2.608347
