13

O      -0.085550   -0.042826   -0.002082
C      -0.036906    1.155163    0.007845
N       1.159360    1.882470    0.000779
C       2.437280    1.333442   -0.018391
C       3.333560    2.356249   -0.019469
C       2.582592    3.588826   -0.000300
C       1.250091    3.258587    0.011784
C       3.113869    4.902804    0.005216
N       3.559370    5.971713    0.009558
H      -0.918147    1.819494    0.023554
H       2.555201    0.263639   -0.029080
H       4.408448    2.273165   -0.032240
H       0.370375    3.880655    0.027101
