16

C      -0.109784    1.523639    0.003719
N       0.096466    0.081342    0.107652
C       1.362217   -0.561494   -0.200551
C       2.532591    0.235798    0.345145
O       3.593693    0.553571   -0.107152
C       1.927082    0.299081    1.769924
C       0.754540   -0.551321    1.225508
C       0.126707   -1.617244    1.934818
C      -0.380245   -2.502959    2.570667
H       0.723729    2.148015    0.349360
H      -0.299721    1.759432   -1.046793
H      -1.002857    1.783279    0.578872
H       1.386560   -1.342510   -0.952957
H       2.565649   -0.249105    2.467667
H       1.680286    1.273608    2.197148
H      -0.836109   -3.289321    3.120047
