16

C       0.022543    1.593503   -0.282267
C      -0.047473    0.086896   -0.129527
C      -1.397828   -0.457673    0.321342
C      -1.728923   -0.029666    1.736647
O      -2.754767    0.504436    2.073799
C       0.831020   -0.760105   -0.976399
N       1.101054   -0.623501    0.467702
H       1.013483    1.908696   -0.624215
H      -0.714314    1.949059   -1.010700
H      -0.186308    2.100049    0.667045
H      -2.204930   -0.139324   -0.345329
H      -1.349879   -1.553844    0.317879
H      -0.924070   -0.253589    2.471896
H       0.503687   -1.747737   -1.290302
H       1.492991   -0.260763   -1.679214
H       1.873203    0.022105    0.614784
