15

N       0.051250    1.417928   -0.137295
C       0.033192    0.033435   -0.063720
C      -1.100068   -0.790948   -0.018335
N      -0.634079   -2.111728   -0.032080
C       0.706766   -2.111459   -0.079530
O       1.353413   -3.291848   -0.096523
C       1.176558   -0.803497   -0.100782
C      -2.498211   -0.531646    0.037064
O      -3.361019   -1.401326    0.075643
H       0.887611    1.845170    0.232893
H      -0.778475    1.877025    0.208130
H      -1.250182   -2.907226   -0.005268
H       2.300392   -3.127224   -0.144471
H       2.209977   -0.495632   -0.147830
H      -2.774997    0.546703    0.043847
