19

C       0.027714    1.302188    0.230944
O      -0.006966   -0.053664   -0.181888
C      -1.299049   -0.620025   -0.122640
C      -1.412724   -1.987758   -0.768370
C      -0.441284   -2.941141   -0.105010
C      -1.703005   -2.629050    0.617973
O      -2.538512   -3.666512    0.974016
C      -1.662480   -1.250356    1.280457
O      -0.784255   -1.000910    2.346496
H       1.064160    1.637489    0.144824
H      -0.602621    1.930173   -0.416672
H      -0.304865    1.421411    1.269923
H      -2.047367    0.100028   -0.478398
H      -1.845090   -2.193564   -1.739002
H      -0.437737   -3.937269   -0.535505
H       0.530953   -2.598122    0.235502
H      -3.428404   -3.314715    1.089083
H      -2.660495   -0.945535    1.614996
H       0.105425   -0.997065    1.972877
