12

O      -0.031739    0.020097    0.045745
C       0.000078    1.213560    0.025063
C       1.337656    2.022425   -0.000246
C       1.370863    2.817939   -1.225841
C       1.337778    3.442024   -2.250766
C       1.416225    2.842642    1.203461
C       1.436565    3.494889    2.219116
C       1.470162    4.239834    3.363155
N       1.497408    4.873215    4.336181
H      -0.903152    1.854152    0.009220
H       2.143912    1.278377    0.003706
H       1.331714    4.001276   -3.154515
