12

O      -0.083887    1.469922    0.043179
C      -0.021949    0.113105   -0.023429
C      -1.115557   -0.907175   -0.099468
O      -0.369584   -1.709164   -1.042419
C       0.637059   -0.743516   -1.102991
O       1.572831   -0.699278   -1.822196
C      -0.347640   -0.809170    1.191338
C       0.518332   -1.848413    1.677121
N       1.222519   -2.670371    2.083118
H       0.742645    1.807920    0.409653
H      -2.185918   -0.833672   -0.225639
H      -0.862243   -0.241169    1.963223
