12

C      -0.019300    1.464058   -0.003193
N       0.003848   -0.006021    0.007288
C       0.112128   -0.641492   -1.228437
O       0.184370   -0.045838   -2.263218
O       0.131676   -1.997520   -1.195310
N       0.042722   -2.744248    0.081007
N      -0.049703   -2.124719    1.119002
C      -0.080683   -0.673173    1.210254
O      -0.174587   -0.157410    2.287620
H       0.899690    1.840927   -0.454830
H      -0.868319    1.812154   -0.593590
H      -0.105740    1.796934    1.028263
