20

C       0.043848    1.568253    0.065395
C      -0.053621    0.038707    0.017770
C       0.503655   -0.529255   -1.293226
C       0.664517   -0.577400    1.212433
O       0.121171   -0.100411    2.437494
C       0.091865   -1.181906    3.362990
C       0.699374   -2.358470    2.576506
O       0.498352   -1.976950    1.226825
H       1.086802    1.898473   -0.011986
H      -0.505776    2.012756   -0.770049
H      -0.366890    1.959792    0.998746
H      -1.106132   -0.254886    0.117310
H       1.564503   -0.276975   -1.410403
H       0.409763   -1.617256   -1.324718
H      -0.031674   -0.110133   -2.150828
H       1.745628   -0.332207    1.183956
H       0.671394   -0.934612    4.260191
H      -0.946461   -1.375747    3.658124
H       1.772020   -2.471769    2.796380
H       0.198870   -3.313486    2.749212
