16

C      -0.015332    1.407118    0.123484
C       0.088405   -0.095723    0.038223
O       0.280372   -0.797700    1.005043
C      -0.074302   -0.784075   -1.331196
O       0.197675   -2.142900   -1.215398
C      -1.530605   -0.551259   -1.837924
C      -1.719760    0.494980   -2.917201
O      -2.434396   -1.206505   -1.387487
H       0.611971    1.889573   -0.632789
H      -1.050035    1.717912   -0.063107
H       0.277460    1.739633    1.119931
H       0.625809   -0.316746   -2.040113
H       0.205035   -2.322382   -0.260507
H      -1.199478    1.426717   -2.670613
H      -1.276299    0.125615   -3.850136
H      -2.781967    0.686073   -3.073612
