22

C      -0.091238    1.709319    0.001548
C      -0.231213    0.185917   -0.086621
C       0.665458   -0.489206   -1.131466
C       0.392625   -0.016245   -2.557144
C       2.189988   -0.499937   -0.752567
N       2.114160   -1.956866   -0.662797
C       0.695695   -2.050494   -0.991920
C       3.006535   -2.923277   -0.364011
O       2.751265   -4.110633   -0.328033
H       0.946173    2.006888    0.191681
H      -0.415788    2.204530   -0.918292
H      -0.700601    2.105063    0.819411
H      -0.007858   -0.252954    0.894206
H      -1.275552   -0.074828   -0.304136
H       0.602972    1.051015   -2.677213
H       1.015872   -0.559355   -3.274947
H      -0.655257   -0.185016   -2.830086
H       2.866038   -0.130171   -1.532304
H       2.436155   -0.004786    0.194338
H       0.083150   -2.462653   -0.182318
H       0.492079   -2.613412   -1.909236
H       4.013386   -2.505120   -0.153136
