18

C       0.149513    1.347146   -0.480719
C       0.019762    0.005163    0.258746
O       0.384326    0.157075    1.608742
C      -1.392866   -0.556698    0.139240
N      -2.100012   -0.572952    1.271625
C      -3.353081   -1.036342    1.241709
C      -3.960369   -1.507125    0.085036
C      -3.220721   -1.496557   -1.096372
C      -1.919330   -1.015000   -1.071019
H       1.164924    1.731256   -0.352764
H      -0.051295    1.241085   -1.551856
H      -0.551232    2.076313   -0.062684
H       0.708077   -0.715244   -0.211689
H      -0.437301    0.018001    2.109339
H      -3.888523   -1.031312    2.187785
H      -4.979171   -1.875904    0.111134
H      -3.653462   -1.862865   -2.021627
H      -1.312721   -0.998500   -1.970176
