19

O       0.468869    0.824276   -0.963230
C       0.074053   -0.200422   -0.096422
C       0.104871   -0.017624    1.455313
C      -1.281431   -0.720678    1.562330
C      -2.458934    0.265802    1.720659
C      -2.472116    0.490815    0.177081
O      -2.039038    1.763223   -0.291231
C      -1.406614   -0.640833   -0.002993
O      -1.825325   -1.743644   -0.755247
H      -0.168709    1.540635   -0.842917
H       0.657106   -1.087165   -0.369755
H       0.935906   -0.510169    1.963669
H       0.081738    1.031481    1.762861
H      -1.316469   -1.669452    2.094997
H      -3.380645   -0.202949    2.075078
H      -2.259579    1.157253    2.323430
H      -3.419570    0.206344   -0.296919
H      -2.629348    2.438389    0.057181
H      -1.642382   -1.554824   -1.683299
