15

C      -0.026248    1.478032   -0.104835
C      -0.067474   -0.026229    0.029857
O      -0.128089   -0.610809    1.082621
C      -0.028739   -0.811223   -1.251448
N      -0.051384   -2.099892   -1.409105
C       0.006319   -2.229682   -2.778099
C       0.007044   -3.543958   -3.477267
N       0.061205   -1.087920   -3.423802
O       0.038170   -0.134264   -2.409078
H       0.883633    1.789326   -0.628670
H      -0.870455    1.830398   -0.706785
H      -0.060002    1.925514    0.888314
H      -0.899751   -4.102919   -3.228820
H       0.058176   -3.399904   -4.557199
H       0.861745   -4.143428   -3.150824
