15

N       0.083109   -1.095338    0.018551
C       0.007713    0.057251    0.012643
C      -0.084154    1.497820    0.005171
N      -1.207386    2.090545    0.041177
C      -1.083963    3.551739    0.025793
C      -0.062105    3.951877   -1.083604
C       1.012894    3.539852   -0.049625
C       0.014823    3.967872    1.052714
O       1.131030    2.095264   -0.043063
H      -2.069173    4.012452    0.057820
H      -0.099386    3.411416   -2.030796
H      -0.045310    5.029448   -1.254187
H       2.031098    3.921228   -0.089146
H       0.043263    5.047864    1.205516
H       0.046053    3.441654    2.008110
