15

O      -0.370789    0.127166    0.009235
C      -0.096742    1.301451    0.010697
N       1.180999    1.818928   -0.001780
C       2.358867    1.087660   -0.014509
C       2.564992   -0.238187   -0.019217
C       4.028678   -0.492961   -0.036124
O       4.617645   -1.548791   -0.108278
N       4.628502    0.759421    0.051127
C       3.675753    1.836738   -0.017813
H      -0.853459    2.108757    0.021655
H       1.258716    2.825396    0.002894
H       1.825566   -1.019629   -0.021109
H       5.607057    0.872921   -0.151568
H       3.780548    2.443883   -0.930616
H       3.747643    2.520239    0.841908
