19

C      -0.236847   -1.225294    0.197171
C      -0.139462   -0.028024    0.123929
C      -0.032925    1.398121    0.024642
C       0.523223    2.210598    1.185221
C       1.330556    2.081321   -0.075351
C       2.599375    1.278279   -0.103662
C       3.211846    0.935797   -1.483079
O       4.463991    1.560572   -1.134176
C       3.933419    2.032481    0.119580
H      -0.327510   -2.280895    0.265086
H      -0.830949    1.870001   -0.541074
H       0.043483    3.156875    1.407934
H       0.851638    1.652450    2.054863
H       1.340442    2.954684   -0.723708
H       2.500973    0.397688    0.534146
H       3.330608   -0.128613   -1.714514
H       2.727594    1.433000   -2.335176
H       3.841780    3.127569    0.142129
H       4.542075    1.711083    0.973079
