17

C       0.039777    1.549844   -0.019999
C       0.126992    0.024250    0.040906
C       0.712174   -0.525074    1.349871
C       0.938271   -2.079224    1.329040
N       2.390345   -2.253466    1.423066
C       2.879518   -1.093310    1.530158
O       2.061998   -0.006206    1.527201
C      -0.085283   -0.101721    2.510627
N      -0.744270    0.203382    3.409267
H       1.027162    2.000983    0.106495
H      -0.361010    1.868123   -0.986085
H      -0.616630    1.940848    0.763180
H      -0.864481   -0.425027   -0.090873
H       0.760449   -0.358381   -0.767676
H       0.442701   -2.582175    2.163444
H       0.559855   -2.516400    0.399680
H       3.932049   -0.853410    1.627216
