17

C      -0.280336   -1.043544    0.574624
C      -0.216242    0.139259    0.369454
C      -0.074854    1.568907    0.123931
C       1.290375    1.914663   -0.504343
C       1.670300    3.415064   -0.396176
C       2.592428    2.984749    0.785439
N       2.472307    1.587165    0.323624
C       3.955906    3.517698    0.813914
N       5.024116    3.957903    0.839734
H      -0.358931   -2.088051    0.750166
H      -0.872354    1.919290   -0.544235
H      -0.199400    2.116927    1.067834
H       1.341770    1.474783   -1.505204
H       2.234308    3.781228   -1.253397
H       0.872008    4.116416   -0.151505
H       2.130390    3.192947    1.760213
H       2.339434    0.879751    1.039080
