13

N      -0.011156    1.307597    0.255057
C      -0.084531    0.095098   -0.074449
O      -1.021476   -0.697502    0.511017
C      -0.960883   -2.040473    0.253195
C      -2.048274   -2.836717   -0.040433
N      -1.548566   -4.091692   -0.157088
N      -0.221734   -4.165156    0.033460
C       0.149163   -2.913139    0.292875
H       0.717083    1.770949   -0.284342
H       0.523360   -0.438887   -0.814456
H      -3.093207   -2.604066   -0.158878
H      -2.057386   -4.935584   -0.358346
H       1.182147   -2.682987    0.505537
