17

C       0.077903    1.496518    0.041298
C       0.037744   -0.010471   -0.060825
O       0.770371   -0.417514   -1.172001
C       0.775641   -1.834826   -1.290466
C       1.470240   -2.436523   -0.069556
C       0.917957   -1.861827    1.213668
N       0.869596   -2.536655    2.282215
O       0.569096   -0.538294    1.172112
H       1.115441    1.830044    0.119017
H      -0.374871    1.938995   -0.848843
H      -0.470868    1.825068    0.926299
H      -0.997715   -0.385566   -0.143755
H      -0.257469   -2.207510   -1.378436
H       1.305408   -2.073252   -2.215070
H       1.384835   -3.523909   -0.036598
H       2.535704   -2.181054   -0.115249
H       0.501648   -1.958120    3.041098
