22

C      -0.040080    1.600364    0.204283
C      -0.030646    0.070428    0.163934
C      -1.398404   -0.526495   -0.200552
C      -1.389062   -2.027443   -0.232626
C      -0.725859   -2.914062   -1.303206
C      -1.896300   -3.943100   -1.108157
O      -1.579870   -5.226019   -0.607358
C      -2.497661   -3.030610   -0.041163
N      -1.525771   -2.770065    1.016683
H       0.944467    1.999374    0.467682
H      -0.320897    2.021791   -0.767709
H      -0.758576    1.971213    0.943678
H       0.720920   -0.272911   -0.559166
H       0.276040   -0.326624    1.139072
H      -2.146920   -0.198829    0.530304
H      -1.717040   -0.144078   -1.180053
H      -0.718793   -2.474882   -2.304831
H       0.278624   -3.278942   -1.062827
H      -2.527690   -4.007254   -2.004337
H      -1.097378   -5.705856   -1.288162
H      -3.551290   -2.896272    0.176699
H      -0.864748   -3.539791    1.107602
