17

C      -0.042077    1.547583   -0.014422
C       0.019218    0.045369   -0.032996
C      -0.006354   -0.698566   -1.201892
C       0.050548   -2.100377   -1.171186
N       0.093078   -2.856692   -2.353229
C       0.131427   -2.696786    0.085098
N       0.161981   -2.002352    1.228635
C       0.108272   -0.684826    1.165381
O       0.137622    0.006836    2.335652
H       0.843839    1.972355    0.469842
H      -0.109066    1.951950   -1.027732
H      -0.906780    1.900798    0.557773
H      -0.067235   -0.185834   -2.158795
H      -0.413759   -2.439868   -3.122233
H      -0.196426   -3.817323   -2.227944
H       0.176832   -3.780298    0.176606
H       0.199428   -0.661856    3.030882
