16

N       0.199329    1.367198   -0.338923
C       0.057205   -0.014085   -0.136273
C      -1.091829   -0.755571    0.060098
N      -0.681550   -2.035256    0.293603
N       0.648660   -2.178253    0.254283
C       1.111925   -0.954903    0.000015
C       2.592946   -0.701549   -0.087754
C       2.991383   -0.001647   -1.309729
C       3.296770    0.596803   -2.307438
H       0.974495    1.576287   -0.958461
H      -0.641512    1.798189   -0.700589
H      -2.134356   -0.480488    0.053072
H      -1.254809   -2.840452    0.473642
H       2.927728   -0.112018    0.777512
H       3.106087   -1.666956   -0.024389
H       3.587650    1.101830   -3.195112
