14

O       0.004701    0.022358    0.218412
C      -0.040489    1.214099    0.058141
C      -1.255220    2.057834   -0.101978
C      -0.928578    3.325547   -0.369503
C       0.567043    3.537480   -0.428013
O       0.999499    4.434201    0.630281
C       1.609772    3.630474    1.537459
N       1.776976    2.397907    1.289031
C       1.176335    2.168946   -0.035974
H      -2.253124    1.646971   -0.015843
H      -1.621004    4.144902   -0.525312
H       0.904011    3.963315   -1.375801
H       1.932641    4.137196    2.439873
H       1.920105    1.759779   -0.724449
