12

C      -0.021456    1.499039    0.028229
C       0.000150   -0.002148   -0.010858
C       0.071248   -0.726794   -1.211228
N       0.088870   -2.048765   -1.220931
C       0.033747   -2.612549   -0.006616
N      -0.034330   -1.981396    1.160600
N      -0.051322   -0.648788    1.155298
H       0.879247    1.918221   -0.432911
H      -0.882497    1.895094   -0.520775
H      -0.077629    1.834640    1.064653
H       0.114012   -0.216627   -2.172177
H       0.045419   -3.697506    0.041205
