25

C       0.003695    1.281132   -0.589333
O      -0.074735    0.085953    0.161270
C      -1.337484   -0.528716    0.165705
C      -2.386167    0.188922    0.989019
C      -1.740810   -1.281219   -1.084126
C      -1.294757   -2.032050    0.158663
C       0.017592   -2.797160    0.173956
C       0.571550   -2.894976    1.603100
C      -0.152072   -4.185510   -0.458760
H       1.052772    1.587199   -0.588261
H      -0.324751    1.130332   -1.627466
H      -0.595852    2.090787   -0.150309
H      -2.633982    1.170340    0.570048
H      -3.310806   -0.393877    1.026310
H      -2.031023    0.336132    2.014479
H      -2.785875   -1.299885   -1.375535
H      -1.041646   -1.262374   -1.914495
H      -2.087788   -2.512247    0.730436
H       0.737941   -2.228071   -0.424107
H       0.742115   -1.898831    2.020608
H      -0.127663   -3.426068    2.260760
H       1.520893   -3.441099    1.621822
H      -0.529919   -4.113431   -1.483715
H       0.800971   -4.724639   -0.485604
H      -0.860732   -4.795075    0.115022
