25

C       0.261789    1.504585    0.007521
C      -0.024233   -0.001071    0.002267
C      -1.514555   -0.424555    0.014246
C      -2.219979    0.082024    1.283724
C      -2.244059    0.095492   -1.236031
C      -1.527543   -1.984713    0.006032
C      -2.852065   -2.597281    0.015398
C      -3.946593   -3.101152    0.023146
C      -5.263086   -3.724689    0.032356
H       1.341604    1.684214   -0.001774
H      -0.159147    2.004493   -0.870003
H      -0.142369    1.995140    0.898114
H       0.452129   -0.446828   -0.881555
H       0.468867   -0.456134    0.872055
H      -2.273186    1.174456    1.304315
H      -3.242089   -0.303837    1.335789
H      -1.691641   -0.245740    2.186671
H      -1.733110   -0.222551   -2.152363
H      -3.267019   -0.289889   -1.272672
H      -2.297531    1.188077   -1.243923
H      -0.975967   -2.332538   -0.878080
H      -0.959231   -2.341910    0.875690
H      -5.184621   -4.817714    0.024504
H      -5.834313   -3.442442    0.923853
H      -5.852088   -3.431025   -0.843754
