13

C      -0.023986    1.612300   -0.044204
C      -0.023305    0.110098    0.012330
O       1.216197   -0.579491   -0.216800
C       0.668341   -0.661248    1.089390
C       1.365708    0.033834    2.148640
N       1.907713    0.575436    3.013674
C      -1.195117   -0.608389   -0.608490
O      -2.203803   -0.057899   -0.958083
H       0.823736    2.028360    0.501950
H       0.026150    1.941922   -1.085544
H      -0.954435    1.995999    0.381474
H       0.289549   -1.642318    1.373651
H      -1.033610   -1.702633   -0.724763
