18

C       0.159906    1.248961   -0.226717
N       0.350968   -0.191959   -0.120833
C       0.581315   -0.701590    0.996396
O       0.694271   -0.143573    2.253211
C       0.913945   -1.459641    2.862610
C       0.801274   -2.128525    1.484604
C      -0.387550   -3.060428    1.250749
C      -0.566278   -3.519223   -0.177625
O      -1.129017   -3.370697    2.152619
H       0.915536    1.661235   -0.904114
H      -0.817774    1.446460   -0.678995
H       0.219104    1.777463    0.731328
H       1.890466   -1.503458    3.348229
H       0.110476   -1.715180    3.554328
H       1.717895   -2.576093    1.091259
H       0.274688   -4.159461   -0.469815
H      -1.499500   -4.073732   -0.280515
H      -0.551318   -2.648952   -0.843241
