16

O      -0.891498    1.116736   -0.005976
C       0.243785    0.888069    0.318855
C       1.385593    1.820785    0.088899
N       2.576179    1.529661    0.446051
C       3.406961    2.674972    0.062090
C       4.170038    2.489156   -1.281516
C       3.112832    3.390207   -1.998684
C       2.413782    3.650633   -0.643875
O       1.125815    3.009297   -0.503816
H       0.561023   -0.043261    0.826187
H       3.998359    3.016797    0.914450
H       5.177543    2.910596   -1.269811
H       4.225933    1.453333   -1.620625
H       3.515735    4.284332   -2.479163
H       2.469231    2.872912   -2.713167
H       2.313449    4.685297   -0.315731
