17

C       0.040632    1.505739   -0.035361
C      -0.008083    0.003031    0.037708
O       0.956776   -0.637951   -0.893313
C       1.226529   -1.611697    0.089847
C      -0.047090   -2.487259    0.556683
O       0.008148   -1.803115    1.863303
C       0.740949   -0.761160    1.252459
C      -1.297277   -1.997114   -0.106152
C      -1.319434   -0.668495   -0.263591
H       1.051583    1.871503    0.163298
H      -0.260806    1.854957   -1.028495
H      -0.641077    1.940439    0.703405
H       2.177891   -2.130772   -0.031606
H       0.059192   -3.566351    0.665938
H       1.316867   -0.142586    1.943410
H      -2.112699   -2.663266   -0.362267
H      -2.166822   -0.103464   -0.637145
