20

C       0.041857    1.477263   -0.084831
C      -0.053338   -0.029454   -0.043236
C      -0.622875   -0.723977    1.141350
N       0.831416   -0.749033    0.919923
C       1.358386   -1.950935    0.247017
C       0.882717   -1.960104   -1.215906
O       1.771567   -2.399725   -2.194455
C      -0.564155   -2.166302   -1.512063
C      -0.024555   -0.750354   -1.373248
H       0.884049    1.801863   -0.706532
H      -0.872352    1.914884   -0.501464
H       0.189925    1.879597    0.920293
H      -0.930656   -0.141245    2.006964
H      -1.195532   -1.637601    1.007558
H       2.453950   -1.893175    0.250479
H       1.082894   -2.859297    0.794598
H       2.548998   -1.829708   -2.170363
H      -0.781920   -2.478798   -2.528052
H      -1.229652   -2.584851   -0.765832
H       0.013740   -0.143010   -2.270380
