16

O      -0.696889    0.744582   -0.708889
C       0.142003    0.906372    0.142508
C       1.299576    1.836927    0.013942
C       1.396586    3.084718    0.962091
C       1.640277    3.990550   -0.283506
C       1.581921    2.747187   -1.216588
N       2.849947    2.029470   -1.377190
C       2.720118    1.244258   -0.252879
O       3.446616    0.469567    0.303328
H       0.099683    0.358161    1.109922
H       0.457370    3.300251    1.475942
H       2.195590    3.034625    1.703780
H       0.823334    4.692263   -0.464196
H       2.584882    4.537661   -0.305001
H       0.945962    2.767745   -2.099703
H       3.697729    2.300777   -1.857577
