21

C      -0.024402    1.561727    0.109053
C       1.533814    1.561521   -0.000785
C       2.110020    1.825699   -1.399900
C       1.795365    0.581231   -2.243477
C       0.293620    0.369784   -2.617845
C       0.132882   -0.606299   -1.428384
C      -0.033816    0.018476    0.000964
C       1.522741    0.001938    0.180405
C       1.687636   -0.616073   -1.233472
H      -0.350969    1.882917    1.102393
H      -0.584078    2.138656   -0.633770
H       2.039668    2.149364    0.768241
H       1.716932    2.746322   -1.848153
H       3.198539    1.943352   -1.324381
H       2.488447    0.467355   -3.079848
H      -0.348421    1.255398   -2.654472
H       0.193949   -0.159418   -3.569971
H      -0.450144   -1.512825   -1.597852
H      -0.713213   -0.526861    0.657815
H       2.029411   -0.440815    1.037752
H       2.311396   -1.497667   -1.380102
