14

O       0.017276   -0.035851    0.015492
C      -0.039788    1.168076    0.015938
C      -1.225296    2.048611    0.021355
C      -0.854529    3.342963   -0.004524
C       0.612783    3.528232   -0.027146
C       1.296227    4.672218   -0.703675
N       1.302100    4.583847    0.751152
C       1.189139    2.131820   -0.009810
O       2.343816    1.811929   -0.037199
H      -2.239219    1.671450    0.043403
H      -1.536520    4.188518    0.000727
H       2.255657    4.473959   -1.173110
H       0.672722    5.414763   -1.195867
H       0.607891    5.213712    1.151074
