20

C       0.012303    1.487958   -0.045057
C      -0.000371   -0.021616    0.025844
C      -1.245788   -0.663211   -0.572048
O      -1.280212   -2.083105   -0.464842
C      -0.045541   -2.636834   -0.020547
C       0.242652   -2.148616    1.409180
C       0.709708   -0.731351    1.125039
N       1.302657   -0.670395   -0.244357
C       1.118697   -2.023852   -0.813412
H       0.964673    1.874487    0.325038
H      -0.111134    1.832190   -1.078329
H      -0.797193    1.918434    0.555026
H      -2.140784   -0.262407   -0.076958
H      -1.314407   -0.376723   -1.634163
H      -0.145151   -3.719224   -0.117798
H      -0.651171   -2.206526    2.035644
H       1.040321   -2.731174    1.884343
H       1.225769   -0.165376    1.895229
H       2.046977   -2.588153   -0.673150
H       0.904397   -1.972404   -1.884928
