25

C       0.026512    1.628794    0.080265
C       0.037048    0.098129    0.003164
C       0.709299   -0.496991   -1.250241
O       2.076210   -0.065748   -1.194760
C       0.628510   -2.038630   -1.245229
C       1.189827   -2.719655    0.007805
C       0.069661    0.089484   -2.539415
C       0.691250   -0.394884   -3.851946
O      -1.322438   -0.221757   -2.486498
H       1.028531    2.036007   -0.079907
H      -0.649615    2.070494   -0.657694
H      -0.315987    1.953459    1.067846
H       0.577486   -0.290158    0.871276
H      -0.986613   -0.283478    0.057355
H       2.576746   -0.576469   -1.838658
H      -0.414648   -2.328342   -1.407112
H       1.183218   -2.410190   -2.117515
H       2.192080   -2.346209    0.239051
H       0.558822   -2.551883    0.884778
H       1.257310   -3.801407   -0.143826
H       0.217637    1.177018   -2.485126
H       0.531263   -1.464991   -4.007745
H       0.238092    0.137353   -4.696459
H       1.764839   -0.183242   -3.886919
H      -1.739647    0.138121   -3.275082
