18

C      -0.400752    1.413781    0.067518
C       0.131023   -0.001769   -0.006307
O       1.329786   -0.096756   -0.810914
C       2.027171   -0.815399    0.220920
C       0.858332   -0.645255    1.217002
C       1.101840    0.182999    2.500687
O       0.580365   -0.644729    3.568573
C       0.153774   -1.772628    2.960172
N       0.254922   -1.890683    1.701399
H       0.358130    2.110912    0.435826
H      -0.699444    1.743608   -0.932308
H      -1.280710    1.467574    0.717935
H      -0.642964   -0.684448   -0.379808
H       2.218333   -1.861004   -0.047031
H       2.970736   -0.327040    0.498356
H       2.163414    0.361869    2.696531
H       0.570665    1.137211    2.523912
H      -0.260449   -2.516440    3.631733
