20

C      -0.204293    1.469162   -0.040090
O      -0.136911    0.057810   -0.047982
C       0.663831   -0.535917   -1.057703
C       0.185211   -0.192917   -2.472995
C       2.174801   -0.229778   -0.874667
O       2.867532   -1.408583   -1.302999
C       2.032330   -2.496122   -1.263132
N       2.377980   -3.671155   -1.563788
C       0.660171   -2.053499   -0.818092
H       0.788653    1.936855    0.032233
H      -0.715418    1.873278   -0.924036
H      -0.778935    1.745847    0.846883
H       0.305802    0.869862   -2.701195
H       0.763114   -0.755820   -3.212324
H      -0.870075   -0.457058   -2.587774
H       2.541329    0.605609   -1.476089
H       2.388466   -0.036635    0.184070
H       3.367881   -3.698102   -1.815800
H       0.540024   -2.238078    0.254591
H      -0.125751   -2.592747   -1.347068
