17

O       0.028663   -0.025715    0.235475
C      -0.007583    1.167687    0.071576
N      -1.182955    1.875415    0.006168
C      -1.349905    3.311901   -0.138317
C      -0.035548    3.985193    0.180023
C       0.010945    5.444039    0.423057
N       0.242598    4.497899    1.529547
C       1.107093    3.247441   -0.464135
O       1.144758    1.879207   -0.037242
H      -1.998087    1.286081    0.049422
H      -1.662565    3.570117   -1.162002
H      -2.137141    3.667223    0.538539
H       0.880714    6.022067    0.122642
H      -0.927639    5.992454    0.385249
H      -0.585526    4.430486    2.116437
H       1.023732    3.282361   -1.559224
H       2.065291    3.675841   -0.166742
