20

C      -0.020982    1.564577    0.021618
C      -0.005598    0.033889   -0.005158
O      -1.347000   -0.468962   -0.047781
C       0.664789   -0.504450   -1.275215
C       0.602031   -2.029618   -1.316988
N       1.079931   -2.609278   -0.066661
C       0.971060   -2.047828    1.175611
O       1.131968   -2.695249    2.194063
C       0.731271   -0.540560    1.214592
H       0.990894    1.977712   -0.039742
H      -0.607522    1.948301   -0.818040
H      -0.474375    1.930626    0.950285
H      -1.781658   -0.231113    0.778045
H       0.162109   -0.101453   -2.159686
H       1.706167   -0.165526   -1.297450
H      -0.432467   -2.338402   -1.511828
H       1.223267   -2.407022   -2.136380
H       1.197475   -3.612550   -0.034236
H       1.713513   -0.062357    1.315893
H       0.188718   -0.325094    2.140834
