19

C       0.335163   -0.159418    1.767424
N       0.056776   -0.067872    0.338833
C       1.159246   -0.556952   -0.485160
C      -1.251321   -0.537844   -0.059418
C      -1.670798    0.181628   -1.344201
O      -2.595692   -0.121568   -2.058868
C      -1.450486   -2.084704   -0.064493
N      -2.600559   -2.514735   -0.643110
O      -0.647937   -2.816694    0.482681
H       1.251524    0.399322    1.986242
H      -0.480372    0.307851    2.330120
H       0.458455   -1.191994    2.121086
H       1.388521   -1.618265   -0.321451
H       0.922747   -0.416559   -1.546357
H       2.053660    0.036196   -0.268548
H      -1.976954   -0.167152    0.683651
H      -1.049712    1.078120   -1.546405
H      -3.090275   -1.896098   -1.276533
H      -2.722505   -3.512188   -0.728414
