16

C      -0.285400    1.332435    0.307048
O      -0.316221   -0.076274    0.392705
C       0.932728   -0.627921    0.794554
C       0.764284   -2.101944    0.921563
C      -0.329557   -2.817034    1.371122
N      -1.529781   -2.378689    1.838057
O      -0.065713   -4.105389    1.333440
N       1.343519   -4.200818    0.806785
N       1.711004   -3.026196    0.601938
H       0.447239    1.672604   -0.439676
H      -1.280823    1.663138    0.002507
H      -0.033254    1.794182    1.274036
H       1.719307   -0.408795    0.057454
H       1.241563   -0.163713    1.747709
H      -1.766044   -1.449984    1.515779
H      -2.282180   -3.050086    1.826409
