22

C       0.597564    2.096205   -0.364251
C      -0.061751    0.708780   -0.356448
C       0.042946    0.086413    1.048550
C      -1.547175    0.861277   -0.749117
C       0.554234   -0.272352   -1.354986
N       0.992282    0.169700   -2.668705
C       1.996443   -0.433153   -1.771975
C       3.134164    0.439551   -1.358354
O       4.119137    0.016167   -0.804365
H       1.604437    2.071280    0.062737
H       0.659551    2.498268   -1.378592
H       0.007373    2.789153    0.244202
H      -0.435783    0.731830    1.792282
H      -0.450506   -0.891154    1.090584
H       1.088338   -0.051249    1.343257
H      -1.642455    1.303490   -1.745979
H      -2.060621   -0.106808   -0.756548
H      -2.069220    1.509527   -0.037983
H       0.040902   -1.235973   -1.319262
H       0.720286   -0.478170   -3.401845
H       2.306942   -1.463727   -1.936402
H       3.024963    1.508481   -1.631169
