11

O      -0.044354    0.075428   -0.010170
C       0.041145    1.252090    0.049619
O      -0.990688    2.182187    0.211211
C      -0.061559    3.263126   -0.007063
C       0.949849    3.308085    1.096266
C       0.661063    2.891099    2.443993
N       0.444180    2.574465    3.533841
C       1.106723    2.320868   -0.082750
H      -0.377651    4.087852   -0.629158
H       1.651637    4.135898    1.029001
H       1.995887    2.293884   -0.694669
