17

C       0.131852    1.360470   -0.103337
O      -0.019664   -0.015047    0.200483
C      -1.301226   -0.516654    0.062545
C      -1.385544   -2.050991   -0.061520
O      -2.189883   -1.952183   -1.267363
C      -2.166822   -0.520923   -1.235415
C      -3.318717    0.156511   -0.427288
O      -3.622435   -0.687189    0.685132
C      -2.495123    0.180338    0.800470
H       1.191955    1.592678    0.014574
H      -0.168043    1.580751   -1.137300
H      -0.447993    2.002245    0.573499
H      -0.409587   -2.503000   -0.268051
H      -1.905865   -2.585057    0.736669
H      -1.890825   -0.049772   -2.181831
H      -4.105937    0.815874   -0.776439
H      -2.474128    0.864203    1.642133
