17

C       0.202638    0.821691    1.217227
C      -0.009806   -0.050493   -0.000888
C       0.683745    0.230528   -1.267191
O       1.115642   -0.833168   -0.412531
C      -1.318816   -0.799337   -0.054967
C      -2.519945   -0.173798   -0.657302
O      -1.810416   -1.187081   -1.346339
C      -1.588787   -1.857308    0.980622
O      -0.990594   -1.985322    2.015767
H       1.179911    1.306710    1.158613
H      -0.568654    1.597098    1.280729
H       0.162200    0.217011    2.125309
H       0.238316   -0.083061   -2.207464
H       1.352406    1.089165   -1.316713
H      -3.514306   -0.447683   -0.306617
H      -2.420633    0.833674   -1.058238
H      -2.422568   -2.532384    0.684947
