19

O       0.290908    1.275658   -0.356278
C       0.063544   -0.080357   -0.036760
C       0.272320   -0.473280    1.452993
C      -1.259317   -0.585151    1.624592
O      -1.631284   -1.726827    2.366400
C      -1.977773    0.670216    2.064326
C      -2.663204    1.244961    1.071765
C      -2.500528    0.529716   -0.254015
C      -1.441066   -0.533321    0.064053
H      -0.134950    1.815230    0.319859
H       0.657641   -0.648829   -0.754813
H       0.743279   -1.453289    1.566722
H       0.803212    0.252939    2.075349
H      -2.591535   -1.726356    2.448869
H      -1.948750    1.009235    3.095200
H      -3.275968    2.134957    1.177830
H      -3.452255    0.107218   -0.600747
H      -2.152364    1.211127   -1.038854
H      -1.613163   -1.505583   -0.400129
