14

C      -0.047641   -1.137771    0.162402
C       0.021839    0.050204    0.006167
C       0.071603    1.486126   -0.200183
O       1.294250    2.002333    0.373820
C       1.511997    3.302087    0.175494
C       2.598517    4.007595   -0.220284
N       2.296326    5.365527   -0.150796
C       1.075063    5.406699    0.258666
O       0.513688    4.187478    0.490820
H      -0.104829   -2.189122    0.303146
H       0.049900    1.725861   -1.271652
H      -0.787201    1.975120    0.273534
H       3.559925    3.640478   -0.536706
H       0.446113    6.265813    0.428748
