14

N      -0.091787   -1.180680   -0.003905
C      -0.063920   -0.025875    0.002436
C      -0.017388    1.439231    0.010129
C       1.399678    1.979745   -0.000561
C       2.103900    2.236925    1.173934
N       3.348705    2.712348    1.178495
C       3.893319    2.931612   -0.019419
N       3.322885    2.732714   -1.208809
C       2.078358    2.257036   -1.185429
H      -0.570337    1.805621   -0.861861
H      -0.553438    1.795782    0.896639
H       1.647110    2.056775    2.146099
H       4.910441    3.314952   -0.027149
H       1.600607    2.093420   -2.150418
