16

C      -0.011639    1.451603    0.114831
N      -0.076154    0.020475   -0.079270
C       0.573453   -0.624751   -1.093932
C       1.192847    0.006197   -2.182064
C       1.794391   -0.772887   -3.166148
N       1.840637   -2.105846   -3.161805
C       1.257106   -2.715991   -2.120016
C       0.635257   -2.028626   -1.103157
F       0.067591   -2.686085   -0.072269
H       1.017006    1.817963    0.245687
H      -0.455766    1.983409   -0.734602
H      -0.585494    1.711496    1.006159
H      -0.321714   -0.551209    0.710932
H       1.205439    1.086128   -2.262159
H       2.271689   -0.281902   -4.011192
H       1.282560   -3.802270   -2.086273
