23

C       0.052327    2.835732   -2.426981
C       0.643403    1.712970   -1.567702
N       1.175224    0.584629   -2.332317
C       2.481450    0.773662   -2.942492
C       0.260177   -0.359551   -2.761848
O      -0.946354   -0.176522   -2.674534
N       0.793094   -1.524787   -3.315672
C      -0.164909   -2.402448   -3.970535
C       1.897229   -2.229543   -2.677437
H       0.789559    3.249967   -3.122773
H      -0.795017    2.452219   -2.998461
H      -0.296312    3.654527   -1.789054
H       1.459059    2.096506   -0.942580
H      -0.129961    1.323284   -0.902939
H       2.602525    0.095363   -3.787025
H       2.577010    1.798536   -3.320913
H       3.301803    0.603191   -2.231972
H       0.363979   -3.029431   -4.696345
H      -0.683235   -3.059274   -3.256436
H      -0.915723   -1.803993   -4.484264
H       2.405162   -1.583826   -1.963128
H       1.526827   -3.108453   -2.128883
H       2.627703   -2.579149   -3.417463
