20

C      -0.050092    1.518660   -0.118071
C      -0.027579    0.019726    0.056507
N       1.309659   -0.643659   -0.099744
C       0.632742   -0.656419    1.178058
C       1.172242   -0.266223    2.568169
C      -0.193548   -0.761449    3.136396
C       0.243508   -1.829063    2.078657
O      -0.437255   -2.936115    1.613339
C       1.688758   -1.734484    2.680266
H       0.831631    1.972311    0.342107
H      -0.053067    1.787616   -1.179860
H      -0.944444    1.952856    0.342517
H      -0.872367   -0.509227   -0.384166
H       1.198828   -1.542289   -0.566201
H       1.708660    0.635314    2.849170
H      -0.183741   -1.083430    4.181484
H      -1.077003   -0.165577    2.896912
H      -0.526055   -3.572763    2.330384
H       2.513928   -2.013022    2.022252
H       1.819153   -2.120421    3.695659
