17

C      -0.150308    1.695944   -0.038823
C       0.004616    0.178465   -0.061479
C       0.819294   -0.424858   -1.249096
C       1.779666   -0.927293   -0.157458
O       1.030423   -0.257759    0.879890
C      -1.266520   -0.491636    0.192317
C      -2.321904   -1.049014    0.396578
C      -3.506520   -1.676333    0.627954
C      -4.558123   -2.233841    0.832012
H       0.817727    2.167174   -0.229306
H      -0.864995    2.020735   -0.801111
H      -0.513168    2.021956    0.939533
H       0.305095   -1.188145   -1.831699
H       1.231145    0.333537   -1.916903
H       1.789617   -2.014219   -0.013849
H       2.811997   -0.564681   -0.209892
H      -5.482492   -2.723227    1.014401
