20

C       0.068431    1.550897   -0.012504
C       0.034912    0.021689   -0.017528
O       0.794881   -0.505866    1.069753
C      -1.386379   -0.550487   -0.026765
C      -2.226680   -0.174174   -1.281398
C      -3.032563   -1.421974   -1.553281
C      -2.603821   -2.460616   -0.839206
C      -1.433627   -2.103108    0.043346
H       1.102481    1.904468    0.021805
H      -0.412125    1.969621   -0.902008
H      -0.457208    1.945742    0.866615
H       0.558562   -0.343936   -0.911210
H       0.395546   -0.183457    1.885616
H      -1.909632   -0.155922    0.856267
H      -2.849800    0.712190   -1.116810
H      -1.581475    0.063709   -2.141386
H      -3.836916   -1.448010   -2.280512
H      -3.007232   -3.466081   -0.894949
H      -0.502317   -2.547732   -0.334728
H      -1.541374   -2.469772    1.069720
