18

C       0.019919    1.523711   -0.003443
C      -0.014174    0.021651    0.029531
N       0.435728   -0.760984   -1.193985
C      -0.325147   -1.925618   -0.602392
C       0.456274   -2.193678    0.684272
C       1.853288   -1.639478    0.793979
C       0.687160   -0.754417    1.152275
C      -1.325686   -0.821503   -0.135945
O      -2.496746   -0.601518   -0.203575
H       1.042175    1.888918   -0.142231
H      -0.606921    1.917552   -0.810000
H      -0.360286    1.928980    0.939349
H      -0.077274   -0.414777   -2.005120
H      -0.594687   -2.748869   -1.260547
H       0.111004   -2.975758    1.348320
H       2.425713   -2.007603    1.638692
H       2.429381   -1.441630   -0.099945
H       0.518815   -0.438368    2.174431
