14

O       0.459274    1.344151   -0.232118
C       0.153664    0.000851    0.038719
C       0.720238   -0.511854    1.335228
C      -0.160631   -1.228020    2.033939
C      -1.518566   -1.304940    1.354479
C      -2.664571   -1.085334    2.230509
N      -3.561026   -0.916685    2.939008
C      -1.353567   -0.220719    0.252074
O      -2.216569    0.415119   -0.280113
H      -0.306502    1.716804   -0.690344
H       0.474264   -0.649231   -0.798638
H       1.748320   -0.328374    1.621135
H       0.024766   -1.724056    2.977903
H      -1.660419   -2.273758    0.851451
