15

O       0.104572    1.345147    0.179729
C       0.013412   -0.028930    0.061371
C      -1.375126   -0.683429    0.039227
O      -2.063821   -0.109589   -1.074311
C      -1.180576   -1.201505   -1.330662
C       0.231063   -0.600961   -1.446479
O       0.386810    0.370724   -2.422218
C       1.355310   -1.594090   -1.476085
O       2.304955   -1.452313   -2.211281
H      -0.318483    1.718209   -0.605629
H       0.688771   -0.485200    0.791259
H      -1.974469   -1.068490    0.855457
H      -1.596065   -2.070344   -1.827579
H       1.277913    0.240984   -2.787144
H       1.285613   -2.445029   -0.769092
