21

C       0.143994    1.480765    0.220268
C       0.030633   -0.025226   -0.034771
C       0.649259   -0.498304   -1.358330
C      -0.046268    0.078463   -2.598489
O       2.040747   -0.110711   -1.344383
C       2.860118   -1.120896   -1.916997
C       2.064122   -2.401192   -1.808480
O       1.552654   -2.627356   -0.489268
C       0.696749   -2.018439   -1.460703
H       1.188005    1.799976    0.170186
H      -0.425720    2.065987   -0.508637
H      -0.242414    1.729759    1.213233
H       0.536940   -0.574085    0.765170
H      -1.023240   -0.331566   -0.017478
H       0.058166    1.165328   -2.621782
H       0.396644   -0.322725   -3.515701
H      -1.113847   -0.166595   -2.602201
H       3.087668   -0.916863   -2.976225
H       3.803656   -1.146733   -1.360895
H       2.324890   -3.283742   -2.386170
H      -0.186571   -2.582574   -1.748730
