18

O       0.401751    0.760756   -0.820959
C      -0.043593    0.232640    0.421131
C      -1.344571   -0.430360    0.344821
C      -2.432761   -0.944460    0.263015
C      -3.732028   -1.576503    0.151648
C      -4.601791   -1.281704   -1.115098
C      -4.526880   -2.776496   -1.400611
C      -3.130673   -3.244611   -1.462135
N      -3.743264   -3.075202   -0.130563
H      -0.297869    1.329355   -1.159061
H       0.723718   -0.485731    0.730502
H      -0.078226    1.011983    1.199255
H      -4.303147   -1.417731    1.070015
H      -5.600100   -0.929873   -0.851022
H      -4.174355   -0.617647   -1.870517
H      -5.364493   -3.397054   -1.701472
H      -2.960509   -4.288587   -1.705735
H      -2.334501   -2.569036   -1.765783
