23

C       0.188143    1.644530    0.091533
C       0.010825    0.130577    0.014123
C       0.676135   -0.452632   -1.249949
C       1.044811   -1.941298   -1.196010
C      -0.099607   -2.960554   -1.104020
C      -0.954509   -2.894505    0.172113
O      -0.176871   -2.683437    1.345339
C      -0.201669   -1.386458    1.876907
O       0.573555   -0.433853    1.204155
H       1.248742    1.890134    0.205063
H      -0.181522    2.126373   -0.819517
H      -0.352586    2.057148    0.947802
H      -1.065219   -0.091516   -0.002886
H       0.020294   -0.248268   -2.107139
H       1.601276    0.108558   -1.433955
H       1.625367   -2.173819   -2.096513
H       1.713442   -2.098393   -0.344941
H      -0.771515   -2.870729   -1.968684
H       0.346881   -3.960057   -1.165714
H      -1.727574   -2.118303    0.091598
H      -1.478518   -3.848548    0.304988
H      -1.247062   -1.034283    1.944119
H       0.232456   -1.471632    2.876222
