19

C      -0.100912    1.556899   -0.014805
C       1.449236    1.543163   -0.067001
C       1.422861    0.109555    0.553671
C      -0.067716    0.010130    0.095997
C       2.410012   -0.914533    0.109018
C       3.258945   -1.671304    0.894626
N       3.970241   -2.463979    0.056006
N       3.649774   -2.284341   -1.238567
C       2.706438   -1.347911   -1.209314
H      -0.470868    2.020708    0.904418
H      -0.634338    1.994713   -0.861421
H       1.817675    1.515611   -1.096846
H       1.996032    2.317782    0.476578
H       1.456170    0.192651    1.645242
H      -0.771588   -0.479176    0.773967
H      -0.143235   -0.466092   -0.886142
H       3.402630   -1.700042    1.963690
H       4.677266   -3.138225    0.293879
H       2.266932   -1.011565   -2.137605
