20

C       0.052158    1.592812    0.178434
C      -0.053991    0.074216   -0.007997
C       0.788138   -0.664192    1.053586
C      -1.485780   -0.379571   -0.000488
C      -2.659679    0.254137    0.324707
C      -3.741054   -0.672579    0.166309
C      -3.176663   -1.849147   -0.256373
O      -3.679604   -3.070600   -0.577655
N      -1.825904   -1.680433   -0.355894
H       1.097136    1.913084    0.126348
H      -0.510551    2.128192   -0.591352
H      -0.340474    1.893785    1.155685
H       0.377571   -0.168404   -0.992052
H       0.423506   -0.432507    2.059796
H       0.738902   -1.750564    0.927060
H       1.840970   -0.367819    0.991932
H      -2.750953    1.280194    0.645277
H      -4.790711   -0.490138    0.337284
H      -4.634192   -3.039256   -0.465724
H      -1.192291   -2.398256   -0.662541
