18

C      -0.031776    1.552242   -0.120367
C       1.418058    1.983684    0.055376
C       2.152136    1.451480    1.266486
C       1.374168    0.532955    2.199298
C       0.736586   -0.491741    1.270572
C       0.002540    0.040436    0.059430
C       1.432324   -0.452976   -0.079004
C       2.325864    0.773714   -0.081607
H      -0.705189    2.044271    0.593166
H      -0.384665    1.807195   -1.126903
H       1.725241    2.949297   -0.332201
H       2.945407    2.064675    1.680850
H       2.056372    0.037476    2.900543
H       0.631493    1.075213    2.798545
H       0.396991   -1.433678    1.688202
H      -0.823102   -0.549118   -0.324920
H       1.697556   -1.344702   -0.631578
H       3.254841    0.793210   -0.636120
