15

O      -0.202098    1.408278   -0.106382
C      -0.078842    0.002022   -0.104890
C       1.142374   -0.538513   -0.923500
O       1.861272   -0.828190    0.352539
C       0.674449   -0.643954    1.014924
N       0.092108   -1.154328    2.008152
C      -1.352044   -0.859679    1.714169
C      -1.449391   -0.628212    0.156196
H       0.643477    1.797858    0.144427
H       0.995454   -1.467503   -1.478707
H       1.679477    0.205071   -1.515119
H      -1.946577   -1.717738    2.035981
H      -1.694831    0.015152    2.277947
H      -2.274888    0.019380   -0.144703
H      -1.548744   -1.593755   -0.347789
