24

C      -0.079495    1.418944    0.773970
C       0.037821   -0.030952    0.358601
C       0.240886   -0.427552   -1.062944
N       1.305543   -0.637745   -0.086184
C       2.519900    0.160187   -0.172331
C      -0.355167   -1.705966   -1.659699
C      -1.822783   -1.495031   -2.034412
C       0.473598   -2.133538   -2.883481
O      -0.319702   -2.732234   -0.675115
H       0.421057    2.099732    0.081404
H      -1.135793    1.705078    0.810732
H       0.339307    1.580460    1.773557
H      -0.538222   -0.718233    0.975296
H       0.379418    0.391415   -1.771165
H       2.368325    1.180633   -0.552632
H       2.983420    0.228139    0.817261
H       3.225034   -0.344466   -0.840334
H      -1.926795   -0.718961   -2.799512
H      -2.245693   -2.424424   -2.426931
H      -2.401943   -1.200280   -1.155245
H       1.520873   -2.282065   -2.600138
H       0.091409   -3.078272   -3.280115
H       0.437601   -1.381466   -3.679645
H       0.520143   -2.597599   -0.207055
