15

O       0.091998    1.420249    0.227494
C       0.071041    0.010424    0.061109
C      -1.401398   -0.564245   -0.110227
N      -1.402427   -1.442561   -1.315524
C      -0.179523   -1.239879   -1.896191
C       0.722119   -0.509057   -1.183624
C       1.878001   -0.583331   -1.994104
N       1.679932   -1.273940   -3.097560
O       0.308163   -1.717950   -3.025689
H      -0.050604    1.813423   -0.641255
H       0.514095   -0.374560    0.984614
H      -1.718158   -1.137708    0.764058
H      -2.085768    0.281853   -0.233597
H      -2.222876   -1.432810   -1.905826
H       2.859593   -0.153615   -1.845150
