17

C      -0.016335    1.515570   -0.196765
C       1.537076    1.534370    0.103110
C       1.264706    0.258781    0.893747
O       1.887692   -1.037993    1.099328
C       0.763812   -1.273519    1.963762
C      -0.667145   -0.767282    1.273370
O      -0.765228    0.239270    2.315163
C       0.655477    0.183206    2.372710
C      -0.011881   -0.018195    0.115970
H      -0.584257    2.084525    0.540104
H      -0.319365    1.806013   -1.202925
H       2.118425    1.352895   -0.804982
H       1.958259    2.387690    0.640125
H       0.817322   -2.164312    2.585352
H      -1.557677   -1.384694    1.173772
H       1.136368    0.688775    3.208629
H       0.175272   -0.633037   -0.765678
