18

C       0.106381    1.582412    0.068124
C       0.044866    0.076114   -0.026231
O      -1.145564   -0.494259    0.456090
C       0.601995   -0.685738   -1.206777
C       1.384949   -0.000746   -2.314287
N       2.713669    0.486731   -1.957551
C       3.145349    0.341534   -0.781102
O       2.546254   -0.201218    0.312780
C       1.276925   -0.786131    0.139225
H       1.009905    1.992155   -0.387075
H      -0.762271    2.019759   -0.433737
H       0.088173    1.902338    1.116962
H      -1.205234   -0.301948    1.399264
H       0.011592   -1.546598   -1.502034
H       1.517703   -0.711593   -3.137937
H       0.824268    0.841962   -2.738993
H       4.137515    0.693028   -0.505388
H       1.188859   -1.695030    0.723379
