16

C       0.211798    1.525324   -0.031860
C       0.116384    0.033023   -0.041914
C       0.004178   -0.837878   -1.084264
C      -0.042873   -0.655160   -2.571489
O       0.879546    0.316604   -3.038536
O      -0.061889   -2.110665   -0.640351
N      -0.003683   -2.111843    0.755482
C       0.103035   -0.846984    1.080985
O       0.191187   -0.442454    2.358564
H       1.038695    1.860950    0.602573
H       0.375200    1.902600   -1.042637
H      -0.701035    1.982140    0.367045
H       0.105376   -1.636390   -3.044470
H      -1.029214   -0.291673   -2.880094
H       1.761175    0.038255   -2.767874
H       0.162744   -1.229207    2.919389
