20

C      -0.172288    1.524203    0.230088
C      -0.200014   -0.002322    0.079480
C       0.616925   -0.503722   -1.112478
C       2.154749   -0.318728   -1.159851
C       2.238798   -1.836375   -1.305164
C       1.583725   -2.517530   -0.174928
N       0.726928   -2.013596   -1.267473
C      -0.070583   -0.061396   -2.399643
O       0.391654    0.682776   -3.223581
H       0.849163    1.888446    0.380267
H      -0.572778    2.027937   -0.655219
H      -0.768644    1.837438    1.091628
H       0.175557   -0.466031    0.997136
H      -1.234008   -0.353250   -0.037731
H       2.463595    0.243386   -2.041579
H       2.637225    0.100914   -0.272689
H       2.844130   -2.365267   -2.033750
H       1.611343   -3.602644   -0.149235
H       1.558352   -2.047082    0.804611
H      -1.079423   -0.515312   -2.521059
