16

O      -0.213137    0.080804   -0.277877
C      -0.021428    1.189049    0.146237
C       1.294064    1.950368    0.013909
C       1.573534    2.578101    1.301617
N       1.741594    3.051210    2.343684
C       2.489500    1.320567   -0.783355
C       1.673027    1.547735   -2.093051
C       1.517013    2.860001   -1.275288
C       3.040964    2.765347   -0.978447
H      -0.811761    1.750451    0.689320
H       3.034814    0.428060   -0.481165
H       2.271740    1.643425   -3.000572
H       0.795051    0.927319   -2.254170
H       0.932096    3.747353   -1.516328
H       3.415715    3.287275   -0.096811
H       3.693794    2.908617   -1.841288
