18

C      -0.426899    1.533869    0.021164
C       0.082114    0.102134   -0.064761
C      -0.981866   -0.917648    0.317394
C       0.902444   -0.242534   -1.335049
C       2.098114   -0.412556   -0.362686
O       1.271025   -0.066219    0.773153
C       2.689176   -1.738991   -0.268461
C       3.177370   -2.835790   -0.203488
H       0.362566    2.244128   -0.240715
H      -1.271751    1.687333   -0.659246
H      -0.762383    1.756733    1.039089
H      -1.838032   -0.858941   -0.363764
H      -0.573556   -1.931077    0.279569
H      -1.339345   -0.730528    1.335092
H       0.601282   -1.152266   -1.854518
H       1.014972    0.571818   -2.052242
H       2.893239    0.331359   -0.501417
H       3.611824   -3.802749   -0.139045
