15

C      -1.553148   -0.257551   -0.754705
C      -0.629103    0.363691   -0.303919
C       0.502292    1.105527    0.249212
N       0.700333    2.380586   -0.451029
C       1.770862    2.549476   -1.075849
C       2.357743    3.671049   -1.905524
C       3.552413    2.707052   -2.056121
O       2.865652    1.713949   -1.233883
H      -2.371724   -0.804374   -1.152085
H       0.294095    1.335524    1.301990
H       1.396897    0.468625    0.230509
H       1.805693    3.898820   -2.818549
H       2.551213    4.593711   -1.356371
H       3.738911    2.318609   -3.059924
H       4.489735    3.018191   -1.589081
