18

C      -0.185022    1.545095   -0.035202
C       0.016001    0.043312    0.042584
O       0.814598   -0.413242   -1.098804
C       1.919353   -1.164433   -0.584721
C       2.881259   -0.192734    0.111045
N       2.093495    0.246207    1.320989
C       0.809701   -0.491774    1.246959
C       1.280214   -1.826801    0.651308
O       1.224708   -2.961051    1.029770
H       0.756382    2.071305    0.132818
H      -0.576219    1.811633   -1.021129
H      -0.906825    1.871072    0.721192
H      -0.955281   -0.469046   -0.003015
H       2.329709   -1.809736   -1.357732
H       3.821011   -0.681363    0.391512
H       3.105284    0.664583   -0.531280
H       2.583264   -0.017864    2.168535
H       0.275869   -0.519718    2.194072
