17

C       0.109902    1.434258    0.401888
C      -0.115432    0.003624   -0.033093
C       0.490637   -0.623644   -1.272833
C       1.412760    0.119500   -2.204459
O       2.339063   -0.829434   -2.717799
N       0.929026   -0.990404    0.057677
C       2.184237   -0.869539    0.613734
O       2.417877   -0.357637    1.684687
H       1.085511    1.818615    0.100737
H      -0.667283    2.079544   -0.020277
H       0.059613    1.500539    1.491825
H      -1.096527   -0.383259    0.242529
H      -0.091679   -1.394503   -1.776754
H       0.814751    0.572072   -3.011252
H       1.929329    0.930865   -1.674155
H       2.929142   -0.376289   -3.327874
H       2.950873   -1.363676   -0.010847
