13

N      -0.028645    1.408797    0.156702
C       0.013246    0.026497    0.053307
C      -1.167473   -0.717617    0.036144
F      -2.342853   -0.081986    0.050689
C      -1.110388   -2.101483   -0.005926
F      -2.241146   -2.803950   -0.024561
C       0.127779   -2.729990   -0.033438
N       1.267054   -2.037497   -0.025086
C       1.207725   -0.709609    0.016456
H       0.781246    1.891120   -0.203063
H      -0.896464    1.829616   -0.140616
H       0.179716   -3.813769   -0.065139
H       2.156199   -0.176159    0.023828
