18

C       0.027383    1.493275    0.080035
C      -0.000117   -0.000891   -0.074788
C       0.690660   -0.708231   -1.247390
C       0.310413   -2.101027   -0.699170
C       0.913641   -1.994359    0.715706
O       0.638932   -0.634291    1.077720
N      -1.143859   -1.933448   -0.586048
C      -1.403224   -0.661552   -0.101745
O      -2.460892   -0.217203    0.274690
H       1.053520    1.848107    0.206360
H      -0.410938    1.973230   -0.799356
H      -0.562601    1.785241    0.952293
H       0.237457   -0.502741   -2.218432
H       1.766874   -0.523823   -1.274114
H       0.592959   -2.976326   -1.282139
H       0.433569   -2.676898    1.426415
H       1.996230   -2.176251    0.722456
H      -1.760719   -2.696052   -0.346264
