21

C       0.041226    1.523638    0.525446
C      -0.056876    0.030546    0.305616
C       1.098443   -0.726734   -0.340710
C       0.802115   -0.905581    1.108795
O       1.683807   -0.441546    2.131575
C       1.245554   -1.490600    3.042305
C       0.537598   -0.945753    4.266380
C       0.365423   -2.121396    1.919304
O      -1.004843   -2.325739    2.139279
H       1.035312    1.794134    0.891829
H      -0.148222    2.076059   -0.400916
H      -0.685171    1.863605    1.272136
H      -1.049110   -0.345840    0.063853
H       0.879364   -1.540183   -1.025297
H       1.987829   -0.153026   -0.583758
H       2.100456   -2.110694    3.337357
H      -0.310879   -0.310483    3.992564
H       0.168607   -1.764926    4.891637
H       1.228535   -0.339642    4.859555
H       0.754960   -3.073602    1.551844
H      -1.411060   -1.469138    2.310147
