17

C      -0.147042    1.576031    0.005214
C      -0.012621    0.054244    0.010367
C      -1.375171   -0.596059   -0.219570
C       1.201732   -0.637365   -0.704605
C       2.180067   -0.101875    0.367192
C       0.913216   -0.656809    1.059833
O       0.997783   -1.828341    0.154832
H       0.789693    2.111945    0.163496
H      -0.563690    1.912013   -0.951057
H      -0.846487    1.892924    0.787069
H      -1.797006   -0.272774   -1.178231
H      -1.298329   -1.682824   -0.218744
H      -2.081591   -0.291558    0.561289
H       1.368148   -0.813784   -1.768979
H       3.064369   -0.724024    0.504929
H       2.407747    0.962555    0.416168
H       0.732586   -0.856610    2.117738
