16

C      -0.107432    1.494735   -0.062272
C       0.045548   -0.006605    0.101120
O       0.067178   -0.541430    1.181637
C       0.181347   -0.798063   -1.208757
C       0.089985   -2.272993   -1.020321
N       1.160326   -3.050419   -0.953498
N       0.612454   -4.271618   -0.749463
C      -0.731030   -4.180330   -0.707951
N      -1.101373   -2.928201   -0.879390
H       0.671092    1.898990   -0.718421
H      -1.070683    1.718074   -0.535873
H      -0.063348    1.980219    0.913156
H      -0.589100   -0.456407   -1.908698
H       1.150492   -0.539640   -1.651198
H       1.206159   -5.078982   -0.655686
H      -1.379086   -5.030784   -0.558408
