18

C       0.109404    1.563466   -0.095676
C       0.048988    0.036730   -0.011914
O       0.739631   -0.447895    1.120494
C      -1.411377   -0.533108    0.021626
C      -1.373273   -2.069892   -0.024740
N      -2.011918   -0.110352    1.299204
C      -2.179021   -0.035303   -1.139975
N      -2.794287    0.369733   -2.031778
H       1.155808    1.877721   -0.103723
H      -0.376278    1.940211   -1.000369
H      -0.365313    2.027204    0.776199
H       0.550232   -0.391519   -0.887078
H       0.145278   -0.287079    1.868846
H      -0.763019   -2.431765    0.803721
H      -2.382059   -2.486403    0.050670
H      -0.933618   -2.413216   -0.963941
H      -2.310010    0.859015    1.254331
H      -2.839077   -0.663240    1.499992
