19

C       0.119362    1.542529   -0.179104
C       0.067924    0.047639    0.064158
O       0.925086   -0.690192   -0.838007
C       1.425166   -1.516729    0.238928
C       2.928923   -1.695797    0.182638
C       0.757120   -0.596924    1.301238
C       1.662499    0.283909    2.154559
H       1.136702    1.931927   -0.091149
H      -0.239929    1.763018   -1.189425
H      -0.523957    2.072522    0.531733
H      -0.972457   -0.298760   -0.037171
H       0.942690   -2.506172    0.209439
H       3.451776   -0.736438    0.207167
H       3.277176   -2.308940    1.020979
H       3.203707   -2.205941   -0.746180
H       0.058791   -1.130054    1.952335
H       2.386399    0.845354    1.557879
H       1.071411    1.007999    2.725090
H       2.224701   -0.321238    2.873534
