16

C      -0.289961    1.349409   -0.816213
C      -0.063088    0.055184   -0.070301
C       1.083278   -0.811081   -0.412300
O       1.103871   -0.003485    0.766393
C      -1.261497   -0.559241    0.553748
C      -1.353907   -1.245746    1.742849
N      -2.663936   -1.573336    1.821243
N      -3.355524   -1.120503    0.759746
N      -2.504405   -0.503429   -0.008426
H       0.644947    1.705389   -1.254921
H      -1.030299    1.201297   -1.606706
H      -0.674334    2.117862   -0.138635
H       1.014194   -1.884585   -0.244317
H       1.768002   -0.503179   -1.201712
H      -0.628913   -1.495202    2.497404
H      -3.150266   -2.073990    2.547962
