18

C      -0.114011    1.639639    0.187322
C      -0.003452    0.127491    0.098611
C       1.061990   -0.572644   -0.790066
N       2.141448   -0.146882    0.260443
H       2.976630   -0.732944    0.292350
H       2.362497    0.847429    0.343426
C       0.907601   -0.692284    1.054230
C       0.873238   -1.869822    0.042472
C      -0.427173   -2.804088   -0.126881
O      -0.113819   -3.992973   -0.177145
O      -1.519867   -2.207722   -0.180280
H       0.837279    2.176523    0.303776
H      -0.593673    2.031167   -0.714837
H      -0.743862    1.917367    1.037842
H      -0.962404   -0.393478   -0.015611
H       1.300458   -0.440908   -1.844626
H       0.966673   -0.699583    2.141782
H       1.756028   -2.516021    0.074483
