15

C      -0.626845   -0.897835   -0.753881
C      -0.239320    0.148652   -0.305712
C       0.243837    1.391845    0.254803
C       0.093558    1.628127    1.791710
C       1.526768    2.255272    1.810489
C       1.784706    1.590567    0.417873
C       1.529483    3.710092    1.774097
N       1.523617    4.865976    1.735502
H      -0.975278   -1.816424   -1.157022
H      -0.180353    2.241088   -0.290700
H      -0.732438    2.258038    2.121758
H       0.079347    0.685469    2.341096
H       2.177989    1.922308    2.621223
H       2.300048    0.636186    0.537052
H       2.293357    2.190898   -0.336363
