20

C      -0.204928    1.534795    0.040205
C       0.040423    0.026947   -0.048975
O       0.794716   -0.308675   -1.204677
C       0.744517   -0.519894    1.202293
C       0.876054   -2.045015    1.256871
C       2.174380   -2.231483    2.053603
C       3.016312   -1.043326    1.570834
O       2.092700   -0.018056    1.188134
H       0.738921    2.064435    0.204247
H      -0.651872    1.896777   -0.889211
H      -0.878931    1.776877    0.869263
H      -0.919527   -0.493426   -0.156879
H       1.693459   -0.013218   -1.006567
H       0.233636   -0.143974    2.102724
H       0.009832   -2.522354    1.721226
H       0.983341   -2.430279    0.237907
H       1.979087   -2.149692    3.128182
H       2.664179   -3.191507    1.873696
H       3.683763   -0.647507    2.344321
H       3.630125   -1.317315    0.701348
