21

C      -0.117814    1.523796    0.031227
C       0.014971    0.003519    0.004845
C       0.746296   -0.471666   -1.247822
O       0.986179   -1.885666   -1.250615
C       1.369649   -2.512114   -0.096763
N       2.043488   -3.583469   -0.131245
C       0.835914   -1.939277    1.214014
C       1.653781   -2.388267    2.420762
N       0.690167   -0.478263    1.209358
H       0.867963    2.004163    0.022758
H      -0.674253    1.888353   -0.837636
H      -0.639134    1.838494    0.938278
H      -0.988635   -0.445031    0.005689
H       0.174303   -0.272268   -2.159198
H       1.712657    0.049559   -1.330702
H       2.263412   -3.823899   -1.100945
H      -0.183410   -2.344894    1.311995
H       2.678232   -2.005633    2.358320
H       1.193499   -2.007611    3.336058
H       1.713729   -3.475745    2.459452
H       1.612115   -0.049608    1.273458
