23

C      -0.088583    1.548043    0.014514
C       0.031248    0.035189   -0.007808
C       1.097825   -0.656998   -0.909144
C       1.128851   -1.779040    0.172139
C       2.401301   -2.567497    0.422720
C       0.694138   -0.692530    1.194944
C      -0.083481   -2.694798   -0.073640
O      -1.166741   -2.004205   -0.678799
C      -1.319968   -0.651004   -0.276357
H       0.873115    2.012573    0.256325
H      -0.415583    1.937820   -0.956493
H      -0.815024    1.879169    0.766721
H       0.812237   -0.930860   -1.928250
H       2.034738   -0.091617   -0.923748
H       3.238754   -1.897602    0.644164
H       2.286962   -3.248121    1.275278
H       2.675772   -3.171895   -0.449678
H       1.552354   -0.134680    1.584433
H       0.052028   -0.998285    2.028913
H       0.174727   -3.502724   -0.768618
H      -0.393013   -3.158092    0.879284
H      -1.955374   -0.575659    0.623142
H      -1.849048   -0.157621   -1.100406
