21

C       0.023480    1.574745    0.062573
C       0.007532    0.074173   -0.017028
C      -0.024818   -0.594090   -1.174783
C      -0.043092   -2.107752   -1.215469
C      -1.417038   -2.643482   -0.762858
O      -1.401394   -2.540460    0.665481
C      -0.075130   -2.197331    1.097346
C       0.823831   -2.643153   -0.059778
C       0.027233   -0.676819    1.300089
H       0.912354    1.933803    0.598096
H       0.016517    2.033050   -0.930155
H      -0.844726    1.951288    0.618907
H      -0.062316   -0.053505   -2.117376
H       0.243686   -2.489579   -2.197669
H      -2.255099   -2.058447   -1.156090
H      -1.553766   -3.694376   -1.059430
H       0.111574   -2.726507    2.036588
H       0.910472   -3.733741   -0.090428
H       1.822337   -2.202307   -0.030713
H       0.938990   -0.426633    1.864220
H      -0.813846   -0.353283    1.927604
