18

C      -0.042008    1.546724    0.069307
C       0.012303    0.043815   -0.044125
C      -1.192192   -0.668875   -0.662417
C      -0.594797   -1.997958   -1.079969
C       0.496911   -2.589624   -0.263515
C       1.185000   -1.506603    0.592797
O       0.290240   -0.597764    1.249269
C       1.248498   -0.683115   -0.690026
N       0.797754   -1.841967   -1.561611
H       0.880022    1.933645    0.511614
H      -0.176349    2.000937   -0.917817
H      -0.878431    1.853644    0.705874
H      -2.001750   -0.762812    0.066342
H      -1.569214   -0.137308   -1.544123
H      -1.191423   -2.685655   -1.672077
H       0.647321   -3.661405   -0.183031
H       2.031942   -1.816492    1.205529
H       2.100143   -0.116390   -1.058172
