19

C       0.728816    1.597880   -0.228292
C      -0.029881    0.270280   -0.166128
N       0.440464   -0.521087    0.972545
C      -0.253779   -1.265189    1.979430
C      -1.313593   -2.318703    1.496065
C      -1.510794   -2.392129    0.007162
C      -0.258154   -2.963225    0.612030
C       0.790473   -1.902918    1.104855
H       1.803089    1.422712   -0.338465
H       0.387124    2.201455   -1.076406
H       0.575217    2.172568    0.689873
H      -1.104147    0.468065   -0.071390
H       0.124573   -0.282302   -1.100439
H      -0.192049   -0.948535    3.016026
H      -1.982067   -2.809161    2.191868
H      -2.228394   -3.149973   -0.297024
H      -1.515183   -1.522408   -0.632152
H      -0.009039   -4.014031    0.539246
H       1.816163   -2.174967    1.334117
