19

C       0.573511    1.514042    0.010542
C       0.087152    0.055503    0.001932
C       0.516690   -0.649210   -1.272369
O       1.918442   -0.851513   -1.477535
C       1.092249   -2.001567   -1.281308
C       1.287564   -2.798694   -0.010226
C       1.086718   -2.014757    1.268174
O       1.912030   -0.866806    1.479862
C       0.511179   -0.662364    1.270730
H       1.665925    1.538420    0.013050
H       0.216518    2.051978   -0.873342
H       0.212643    2.042808    0.898374
H      -1.013295    0.053142   -0.000465
H      -0.010521   -0.309425   -2.166563
H       0.965118   -2.607738   -2.180087
H       0.573451   -3.632979   -0.016093
H       2.288848   -3.248386   -0.010381
H       0.955712   -2.630185    2.160078
H      -0.019912   -0.331833    2.166095
