23

C       0.198725    1.623676    0.377385
C      -0.054342    0.139328    0.243179
C       0.976611   -0.756051   -0.433193
C       0.761696   -0.856533    1.041035
O       1.805036   -0.348528    1.847837
C       1.596889   -0.747522    3.207511
C       0.302895   -1.574811    3.232569
C       0.182696   -2.059206    1.774901
C      -1.215809   -2.511701    1.367355
H       1.235566    1.812227    0.666445
H       0.000738    2.147420   -0.564310
H      -0.444924    2.066826    1.145956
H      -1.090596   -0.130814    0.057105
H       0.632098   -1.564496   -1.070951
H       1.904093   -0.291807   -0.753055
H       2.464045   -1.339657    3.528055
H       1.541558    0.141801    3.846613
H       0.338274   -2.390913    3.958772
H      -0.556612   -0.941622    3.480456
H       0.881252   -2.895587    1.629496
H      -1.959275   -1.731243    1.558040
H      -1.262454   -2.772229    0.304450
H      -1.512353   -3.399355    1.934947
