20

C      -0.219360    1.498563    0.053828
C       0.046114   -0.012845   -0.027407
N       0.752636   -0.369183   -1.264739
C       2.161292    0.022723   -1.259757
C       2.884731   -0.241026    0.033162
C       2.260462   -0.515980    1.189662
C       2.971469   -0.827608    2.476996
C       0.773435   -0.476693    1.241231
O       0.162349   -0.747435    2.257875
H       0.711656    2.070104    0.127334
H      -0.755615    1.827534   -0.840079
H      -0.821036    1.723578    0.937973
H      -0.919808   -0.527368   -0.037580
H       0.706554   -1.377279   -1.376002
H       2.666957   -0.498432   -2.081057
H       2.244921    1.093250   -1.505058
H       3.973168   -0.189260    0.005306
H       4.056305   -0.807540    2.345617
H       2.694362   -0.113717    3.259425
H       2.679789   -1.814741    2.850175
