23

C      -0.064559    1.452683   -0.006307
C       0.017339   -0.060592    0.018898
C       1.378478   -0.666664   -0.206070
C       0.752312   -0.677444    1.180768
C       0.810045   -2.234446    1.197087
C       1.198455   -2.985857    2.437440
C       0.087652   -2.862167    0.028842
C       1.438009   -2.223633   -0.193623
C       2.629638   -2.961218   -0.732091
H       0.842798    1.906421    0.406950
H      -0.185780    1.823802   -1.029809
H      -0.914636    1.811246    0.584271
H      -0.867389   -0.542963   -0.384314
H       2.212565   -0.067910   -0.554092
H       1.039403   -0.088110    2.044244
H       0.389243   -2.976236    3.178990
H       1.427591   -4.032908    2.214300
H       2.083121   -2.544197    2.912276
H       0.121263   -3.949194    0.035556
H      -0.837007   -2.475235   -0.385669
H       2.650678   -2.937330   -1.829270
H       3.568265   -2.518612   -0.376780
H       2.619907   -4.012374   -0.426173
