21

C      -0.021287    1.486865   -0.057547
C      -0.017064   -0.007608   -0.004398
C      -1.056259   -0.835639    0.099986
C      -2.549800   -0.777522   -0.023741
C      -2.867508   -2.241537   -0.482715
O      -1.628480   -2.878007   -0.798061
C      -0.648769   -2.282619    0.051053
C       0.780690   -2.237786   -0.500277
C       1.272648   -0.815357   -0.104620
H       0.505687    1.918049    0.803848
H       0.498899    1.851834   -0.952472
H      -1.037607    1.890688   -0.061486
H      -3.058732   -0.547040    0.918981
H      -2.874785   -0.034388   -0.758233
H      -3.379957   -2.785929    0.325192
H      -3.498739   -2.285048   -1.374179
H      -0.687732   -2.764468    1.045932
H       1.425440   -3.038616   -0.129921
H       0.721777   -2.321683   -1.589873
H       1.965965   -0.390226   -0.840575
H       1.816243   -0.829760    0.851156
