15

N      -0.034966    0.974696    0.042613
H      -0.026875   -0.047588    0.022430
H       0.931715    1.308285    0.028443
H      -0.512670    1.313124   -0.795972
C      -0.736679    1.492455    1.275050
C      -2.090324    1.685492    1.147244
C      -2.799049    2.151603    2.318054
O      -3.999917    2.377923    2.389145
N      -1.967500    2.340579    3.436483
C      -0.582453    2.144827    3.582935
O      -0.031782    2.365653    4.653613
C       0.062819    1.678761    2.375990
H       1.128530    1.494038    2.394384
H      -2.649181    1.505580    0.238669
H      -2.440946    2.668993    4.267942
