19

C      -0.904786    0.564359   -0.070509
N      -0.582884   -0.740747   -0.635334
C       0.529617   -0.913721   -1.182383
O       1.590873   -0.041145   -1.365388
C       2.414746   -1.094979   -1.953086
C       1.238019   -2.091940   -1.853970
N       1.499969   -3.334444   -1.162804
C       1.495615   -3.345618    0.300346
C       0.381677   -3.970564   -0.465493
H      -0.066881    1.270772   -0.073991
H      -1.734921    1.004145   -0.634693
H      -1.253487    0.431444    0.958903
H       2.751915   -0.819265   -2.954367
H       3.264937   -1.335159   -1.310162
H       0.793826   -2.330839   -2.824904
H       2.265552   -3.961357    0.755657
H       1.267785   -2.423640    0.829466
H      -0.568599   -3.443621   -0.450766
H       0.324443   -5.050183   -0.571890
