16

C      -0.076834    1.541823   -0.002169
C       0.117788    0.043203    0.072512
O       1.163333   -0.456238   -0.819508
C       1.744177   -1.197293    0.239294
C       2.252896   -0.275079    1.325340
C       0.792658   -0.603492    1.288363
C       2.187585   -2.585459    0.064288
O       2.167695   -3.197989   -0.973666
H       0.829568    2.082039    0.282699
H      -0.343031    1.832563   -1.022977
H      -0.890748    1.848374    0.663251
H      -0.816770   -0.479899   -0.164527
H       2.805692   -0.751044    2.129231
H       2.626980    0.695761    1.016549
H       0.281827   -1.108807    2.096993
H       2.559450   -3.038070    1.013423
