16

O       0.017273    0.062014    0.234415
C      -0.012533    1.242414    0.034427
C      -1.266346    2.133894   -0.098595
C      -0.748551    3.394943   -0.749195
C       0.203146    4.332970   -0.061806
C       0.711029    4.002389    1.294842
C       1.337471    2.823770    1.274115
C       1.196360    2.201377   -0.103753
N       0.721411    3.294151   -0.993035
H      -2.014737    1.633530   -0.717822
H      -1.702988    2.271883    0.895194
H      -1.308846    3.785538   -1.594147
H       0.247390    5.361155   -0.412876
H       0.593181    4.653367    2.151716
H       1.769370    2.296787    2.115792
H       2.082458    1.696732   -0.491680
