20

C      -0.187152    1.587039   -0.018837
C       0.039032    0.073622   -0.001364
C       0.797339   -0.465394   -1.214793
C       2.238764   -0.073923   -1.362435
C       1.875898   -1.387866   -0.699826
C       1.793912   -1.335105    0.800520
O       2.432042   -1.995578    1.594817
N       0.848548   -0.383832    1.126591
C       0.469269   -0.141758    2.499375
H       0.762680    2.126845   -0.069823
H      -0.786940    1.862026   -0.891943
H      -0.726063    1.921135    0.872854
H      -0.947710   -0.417600    0.043262
H       0.222257   -0.701902   -2.101395
H       2.666466   -0.134323   -2.357083
H       2.647734    0.717398   -0.743219
H       2.152465   -2.328282   -1.156685
H       1.134281   -0.735851    3.128785
H       0.566964    0.915570    2.769451
H      -0.568623   -0.450498    2.684812
