16

C      -0.090342    1.424311   -0.028237
N      -0.028795   -0.018773    0.141280
C      -1.186248   -0.754261    0.060086
N      -2.378514   -0.163288    0.068297
N      -3.262523   -1.204795    0.036494
C      -2.679861   -2.405183   -0.005799
C      -1.305869   -2.184984    0.009428
C      -0.274352   -3.201090   -0.002662
O      -0.473774   -4.398934   -0.054035
H       0.913805    1.834876    0.097699
H      -0.483439    1.725922   -1.009306
H      -0.742711    1.853369    0.736019
H       0.780828   -0.463790   -0.260084
H      -4.246109   -0.995104    0.038769
H      -3.233913   -3.329556   -0.038169
H       0.768277   -2.808463    0.044148
