15

O       0.612403    0.838729   -0.663497
C      -0.035989   -0.174502    0.056933
C       0.096760   -0.221199    1.610881
C      -1.382650   -0.607670    1.650711
C      -2.025031   -1.715147    2.358426
O      -2.263772   -0.347101    2.725279
C      -1.588458   -0.139418    0.209191
H       0.346717    1.687731   -0.294186
H       0.293944   -1.113577   -0.394529
H       0.831807   -0.897990    2.051655
H       0.247073    0.784501    2.020811
H      -2.871962   -2.230503    1.906474
H      -1.457888   -2.299126    3.082624
H      -1.960484    0.891630    0.184646
H      -2.192709   -0.751224   -0.464008
