19

C      -0.357725    1.401092    0.065928
C       0.125071   -0.032277   -0.016339
O       1.363461   -0.163068   -0.769274
C       2.037267   -0.813528    0.327087
C       0.802247   -0.658415    1.204055
C       0.700168   -0.276355    2.639556
C       0.214158   -1.650700    2.183723
C      -1.188770   -1.938636    2.136337
C      -2.367856   -2.170942    2.072531
H       0.397671    2.044786    0.526089
H      -0.572455    1.781003   -0.937752
H      -1.279267    1.459070    0.655114
H      -0.655583   -0.675141   -0.445974
H       2.320935   -1.846733    0.085337
H       2.930686   -0.262058    0.648548
H       1.608877   -0.246947    3.232515
H      -0.056301    0.444940    2.928735
H       0.851507   -2.491171    2.447412
H      -3.407444   -2.381878    2.027970
