18

C      -0.054220    1.539399   -0.020298
C      -0.079974    0.029826    0.056518
C      -1.229326   -0.667010   -0.635937
O       1.209714   -0.603905   -0.127627
C       0.625416   -0.656708    1.149102
C       1.270159   -0.144791    2.456882
N       0.829791   -1.414136    3.050186
C       0.261864   -1.943918    1.911559
O      -0.295679   -2.980608    1.670881
H       0.840103    1.943821    0.459444
H      -0.057862    1.864346   -1.066312
H      -0.938478    1.966171    0.464815
H      -1.204375   -0.454911   -1.710281
H      -1.174677   -1.745929   -0.481901
H      -2.186308   -0.305882   -0.244644
H       2.356340   -0.024606    2.402705
H       0.812321    0.746047    2.898988
H       0.851734   -1.750159    4.000066
