14

C      -0.060365    1.568216    0.041255
C       0.116381    0.083752    0.004644
N      -0.791292   -0.856468    0.755902
C       0.658023   -0.928375    0.986571
C       1.196230   -1.844086   -0.119825
C       0.690468   -0.759762   -1.118249
O       0.885402   -0.553489   -2.280316
H       0.813434    2.072503   -0.382595
H      -0.935463    1.872114   -0.542848
H      -0.197244    1.924889    1.067773
H      -1.199164   -0.291259    1.502723
H       1.097345   -0.735431    1.956695
H       2.286020   -1.923110   -0.164950
H       0.739710   -2.833897   -0.180697
