22

C      -0.199488    1.507262   -0.015785
C       0.125006    0.019258    0.080157
C       0.782979   -0.581181   -1.174370
C       1.429543   -1.895171   -0.694440
C       2.694328   -2.271882   -1.467284
N       1.678833   -1.626809    0.736492
C       1.140581   -0.339416    1.176086
C       2.106293   -2.556579    1.625052
O       2.216110   -2.379181    2.823185
H       0.704283    2.093905   -0.216623
H      -0.913026    1.705053   -0.822073
H      -0.638913    1.879244    0.915450
H      -0.799998   -0.536510    0.283594
H       0.080918   -0.745901   -1.995941
H       1.564005    0.098282   -1.540225
H       0.702069   -2.714368   -0.786035
H       3.451542   -1.487375   -1.371374
H       3.126893   -3.208952   -1.105293
H       2.461321   -2.401216   -2.529518
H       1.935073    0.418258    1.236198
H       0.710153   -0.443555    2.174458
H       2.351498   -3.522110    1.138584
