23

C       0.008203    1.628770    0.060946
C      -0.124264    0.108279   -0.095538
C       0.693772   -0.459720   -1.259063
O       0.322955    0.128039   -2.489782
C       2.212185   -0.574935   -0.970131
O       2.112447   -2.000375   -0.815125
C       0.759284   -2.024302   -1.364635
C      -0.160904   -2.866721   -0.492612
C       0.779821   -2.543101   -2.800823
H       1.053775    1.935347    0.177941
H      -0.410968    2.168092   -0.796431
H      -0.535984    1.974706    0.944176
H       0.199496   -0.373910    0.832457
H      -1.178482   -0.154064   -0.241808
H       0.378261    1.084466   -2.399718
H       2.835337   -0.286931   -1.827546
H       2.594039   -0.090391   -0.063269
H      -0.131439   -2.555383    0.553114
H      -1.194844   -2.812245   -0.848770
H       0.155377   -3.913746   -0.538463
H       1.112132   -3.585908   -2.800213
H      -0.216967   -2.492942   -3.248861
H       1.456784   -1.958970   -3.425722
