20

C      -0.054097    1.480318   -0.272789
C       1.444604    1.624304    0.119701
C       1.422431    0.182601    0.706709
C       1.428166    0.100885    2.231903
N       1.198895   -1.240568    2.763905
C       0.291392   -2.023710    2.371263
O      -0.722074   -1.906790    1.470695
C      -1.055232   -0.602610    0.964544
C       0.019425   -0.040205    0.056863
H      -0.726508    2.025068    0.397300
H      -0.318211    1.741975   -1.299461
H       2.104144    1.721645   -0.745906
H       1.688314    2.425395    0.823109
H       2.200751   -0.482443    0.322402
H       2.409274    0.428265    2.596142
H       0.707543    0.810513    2.661527
H       0.243584   -3.028950    2.791976
H      -1.996654   -0.744278    0.425713
H      -1.256828    0.066629    1.808884
H       0.088409   -0.654952   -0.845308
