12

C      -0.003216    1.484841    0.039817
C      -0.000690   -0.003652   -0.020428
C      -0.068776   -0.822706   -1.092598
O      -0.032010   -2.132521   -0.631577
C       0.057160   -1.988530    0.707192
O       0.111051   -3.102053    1.435959
N       0.081147   -0.778732    1.146204
H       0.911921    1.855357    0.513588
H      -0.075998    1.918889   -0.960601
H      -0.845829    1.847104    0.638071
H      -0.140866   -0.692890   -2.157551
H       0.074347   -3.858979    0.838807
