20

C      -0.111754    1.542309    0.180014
C      -0.166746    0.013724    0.169753
C      -1.560970   -0.555360   -0.184275
C      -1.967494   -0.126341   -1.529810
N      -2.257886    0.209421   -2.597145
C      -1.606536   -2.076115   -0.092012
C      -1.704379   -2.742476    1.266495
C      -2.872559   -2.773548    0.310945
O      -3.975563   -1.953509    0.562539
H       0.890054    1.891556    0.446140
H      -0.362908    1.955336   -0.801537
H      -0.815778    1.958857    0.908798
H       0.568002   -0.385144   -0.539247
H       0.101142   -0.382155    1.155324
H      -2.301880   -0.150073    0.514167
H      -1.000353   -2.581875   -0.837556
H      -1.137254   -3.648698    1.447870
H      -1.808918   -2.090404    2.128246
H      -3.104478   -3.714391   -0.186562
H      -4.482574   -2.344002    1.281713
