22

C       0.012287    1.465021    0.151219
N       0.009415    0.012627    0.121028
C      -1.074166   -0.615132   -0.052562
C      -1.106947   -2.126006   -0.030896
C      -2.103010   -2.713231   -1.038728
C      -3.457592   -2.021829   -0.869029
C      -3.298410   -0.512889   -1.035421
C      -4.566298    0.274017   -0.745117
O      -2.285782    0.021193   -0.154011
H       0.898385    1.826516   -0.380955
H      -0.883291    1.926208   -0.279639
H       0.104844    1.808056    1.189596
H      -0.089543   -2.487134   -0.187027
H      -1.409516   -2.432455    0.980608
H      -1.736244   -2.556773   -2.061561
H      -2.192681   -3.794695   -0.896422
H      -4.184507   -2.384301   -1.604154
H      -3.867388   -2.234167    0.127230
H      -2.971962   -0.309326   -2.067418
H      -4.904347    0.090550    0.279452
H      -4.386584    1.346057   -0.860420
H      -5.363705   -0.021268   -1.433699
