20

C      -0.398411    1.646215   -0.076195
C      -0.065661    0.159027   -0.119153
C       0.590309   -0.527289   -1.335128
N       2.001837   -0.273762   -1.484834
C       2.683282    0.981195   -1.173990
C       1.626022   -1.247196   -0.466064
C       2.199801   -2.632071   -0.472183
C       1.055259   -0.498027    0.735579
O       1.290473   -0.511571    1.910505
H       0.430224    2.274989   -0.405707
H      -1.258465    1.867440   -0.716692
H      -0.659541    1.939959    0.945749
H      -0.968619   -0.409885    0.150219
H       0.055649   -0.940340   -2.184699
H       2.445500    1.418979   -0.196653
H       3.761103    0.793336   -1.200959
H       2.449640    1.712250   -1.954004
H       2.351259   -2.973668   -1.499189
H       3.168060   -2.650574    0.039620
H       1.539013   -3.335571    0.043975
