18

N       0.032030    1.406131   -0.285342
C      -0.016448    0.011227   -0.079392
C      -1.031785   -0.913115   -0.188404
C      -0.457985   -2.200000    0.057267
C       0.881868   -2.019055    0.314341
N       1.133912   -0.659128    0.236467
N      -1.183743   -3.407108    0.129240
C      -1.745724   -3.956128   -1.103466
C      -0.587249   -4.610815   -0.432726
H       0.084625    1.921148    0.589392
H      -0.798212    1.719492   -0.773046
H      -2.071354   -0.702376   -0.386830
H       1.651355   -2.720871    0.587950
H       2.042753   -0.230836    0.237538
H      -2.743499   -4.376784   -1.017368
H      -1.544452   -3.422169   -2.029516
H       0.381233   -4.512715   -0.919186
H      -0.724601   -5.520399    0.145037
