20

C      -0.139698    1.621060   -0.046495
C       0.112463    0.130543    0.029538
O      -0.971632   -0.584330   -0.543397
C       1.403695   -0.653649   -0.201819
C       2.676293   -0.162622    0.530501
N       2.415652    1.125638    1.223542
C       1.966920   -0.159709    1.824209
C       0.667044   -0.706987    1.155662
C      -0.070249   -1.839490    1.811550
H      -0.205954    1.926852   -1.099995
H      -1.103977    1.841026    0.424342
H       0.648421    2.195109    0.430174
H      -1.065119   -0.270913   -1.449675
H       1.422547   -1.423019   -0.964233
H       3.686405   -0.466026    0.285681
H       3.280470    1.376183    1.704149
H       2.299244   -0.455720    2.811754
H      -0.571451   -1.500524    2.727426
H      -0.826585   -2.247550    1.140355
H       0.617799   -2.645879    2.093228
