19

C       0.210347    1.158690   -0.430240
N      -0.030506   -0.168740    0.135333
C       0.480637   -0.287428    1.505640
C      -1.397736   -0.607218    0.020685
C      -1.842223   -1.114772   -1.353604
C      -1.544730   -2.107183   -0.274747
O      -0.392032   -2.870834   -0.299022
C      -2.382883    0.050387    0.851618
N      -3.141862    0.593787    1.536934
H       1.285341    1.360562   -0.425259
H      -0.142577    1.190049   -1.463960
H      -0.294775    1.958556    0.134469
H      -0.020299    0.398610    2.206639
H       0.340173   -1.312503    1.856521
H       1.550615   -0.061580    1.506784
H      -2.872618   -0.939460   -1.639921
H      -1.112015   -1.008839   -2.148629
H      -2.369488   -2.634596    0.190591
H       0.334142   -2.244413   -0.445453
