21

O      -0.051439    1.452346   -0.044935
C      -0.015535    0.040909    0.020583
C       0.249038   -0.587321    1.424471
C      -0.896026   -1.595802    1.133026
C      -1.428081   -0.591065    0.067664
O      -0.515371   -2.863737    0.631243
C       0.667612   -2.952362   -0.146422
C       0.709058   -2.038045   -1.375426
C       0.887229   -0.536831   -1.080269
H       0.854744    1.774993   -0.102650
H       1.244729   -0.970884    1.660268
H      -0.057529    0.116191    2.202113
H      -1.573146   -1.814514    1.960695
H      -2.132758    0.115465    0.513510
H      -1.855470   -1.002227   -0.849092
H       1.559704   -2.782297    0.476861
H       0.701253   -3.997212   -0.470429
H       1.537843   -2.369019   -2.012627
H      -0.207765   -2.200535   -1.952837
H       0.694226    0.030890   -1.997674
H       1.933707   -0.342016   -0.801020
