23

C       0.057340    1.569248    0.078135
C       0.105350    0.051786   -0.010992
C       0.856116   -0.519610   -1.217722
C       1.320726   -1.890256   -0.701411
C       2.486269   -2.506500   -1.475230
C       2.899577   -3.881653   -0.962846
O       3.943214   -4.358384   -1.798452
C       1.622550   -1.560349    0.773307
O       0.790191   -0.464090    1.138685
H       1.069105    1.986681    0.063132
H      -0.506827    1.986901   -0.762362
H      -0.428596    1.882779    1.006389
H      -0.926137   -0.339840   -0.007984
H       0.232786   -0.583544   -2.113633
H       1.724377    0.109419   -1.452863
H       0.465281   -2.579079   -0.735844
H       2.220463   -2.605918   -2.534251
H       3.356473   -1.839327   -1.431066
H       3.232448   -3.811440    0.085349
H       2.030611   -4.560590   -0.982657
H       4.225869   -5.216140   -1.468484
H       1.424248   -2.402158    1.447825
H       2.679638   -1.275138    0.896791
