19

O       0.040397    1.398807   -0.020523
C      -0.004141   -0.014077    0.028655
C      -1.423418   -0.478958    0.046897
C      -2.528060    0.270780    0.023807
C      -3.795940   -0.566305    0.057955
O      -4.750613   -0.222592   -0.939449
C      -3.267285   -2.004638   -0.011758
C      -2.460191   -2.408980   -1.223285
C      -1.758913   -1.941324    0.037432
H       0.961904    1.670851    0.004981
H       0.509380   -0.467717   -0.838349
H       0.511546   -0.403673    0.924892
H      -2.551331    1.350659   -0.040679
H      -4.339270   -0.413960    0.999286
H      -4.325631   -0.345414   -1.795636
H      -3.813445   -2.782838    0.506835
H      -2.435412   -3.468232   -1.457569
H      -2.419680   -1.756159   -2.090455
H      -1.164214   -2.646263    0.608762
