17

O      -0.084414    1.344499   -0.098110
C       0.049761   -0.051689   -0.001735
C       0.800597   -0.739030   -1.153737
O      -0.208377   -1.298254   -1.990098
C      -1.273223   -1.760880   -1.156064
C      -1.339799   -0.762655    0.006620
C      -1.038663   -1.234604    1.446080
O       0.177140   -1.996790    1.401601
C       0.270714   -0.570506    1.451841
H       0.794511    1.736970   -0.053916
H       1.374386   -0.030056   -1.758323
H       1.471189   -1.520820   -0.771036
H      -2.176617   -1.782939   -1.770432
H      -1.065696   -2.775085   -0.787695
H      -2.153661   -0.039194   -0.053192
H      -1.727028   -1.450590    2.254317
H       0.843685   -0.121511    2.255948
