23

C       0.098494    1.505988    0.043269
C       0.060647   -0.028381    0.148890
C       0.800562   -0.510123    1.408884
C      -1.377706   -0.583320    0.068838
C      -2.266676   -0.097789    1.215683
C      -2.098090   -0.669925   -1.328617
C      -1.146196   -1.795860   -1.798819
C      -1.608165   -2.083900   -0.350570
O      -2.981511   -1.728278   -0.782277
H       1.133324    1.856881   -0.027932
H      -0.434771    1.861764   -0.844770
H      -0.349218    1.987561    0.918103
H       0.626859   -0.409626   -0.704883
H       0.369793   -0.089085    2.322615
H       0.774986   -1.601395    1.498303
H       1.851427   -0.204374    1.373366
H      -2.355720    0.992890    1.212985
H      -3.265081   -0.522788    1.123671
H      -1.855531   -0.389816    2.186798
H      -2.575406    0.120091   -1.911489
H      -1.591789   -2.461535   -2.537995
H      -0.099797   -1.581978   -2.012675
H      -1.496421   -2.993325    0.242831
