15

O      -0.095461   -0.045764   -0.436786
C      -0.049218    1.100209   -0.067911
C       1.217229    1.918471   -0.013503
C       1.241316    3.267386   -0.832609
C       1.455708    4.024598    0.480991
O       0.374583    3.721870    1.342026
C       1.426038    2.759581    1.273441
C       2.186808    2.413382    2.500053
O       2.187712    3.074174    3.506073
H      -0.960140    1.644655    0.260546
H       2.074431    1.283490   -0.246379
H       2.091377    3.308042   -1.515195
H       0.326989    3.535722   -1.367321
H       2.007683    4.936043    0.678561
H       2.788853    1.483226    2.401749
