16

O      -0.045451    1.389182   -0.040362
C      -0.013923   -0.024022    0.050277
C       0.572738   -0.499884    1.419694
N      -0.633318   -0.711648    2.188169
N      -0.862847   -0.956994    3.494988
C      -2.185547   -1.102939    3.492730
N      -2.801685   -0.974815    2.278670
C      -1.776598   -0.727746    1.484220
C      -1.497382   -0.496981    0.034692
H       0.859756    1.716560   -0.056012
H       0.556401   -0.456758   -0.780879
H       1.148501   -1.428122    1.329595
H       1.207814    0.267413    1.870787
H      -2.727820   -1.306783    4.404296
H      -2.123917    0.275323   -0.415249
H      -1.621599   -1.416804   -0.546304
