22

C      -0.041243    1.574386    0.042818
C      -0.036746    0.044830   -0.040416
C       0.748117   -0.512517   -1.232265
C       2.263151   -0.226720   -1.219424
C       2.832392   -1.243947   -2.214052
C       2.049215   -2.542271   -1.877087
C       0.652117   -2.056785   -1.359892
C       1.968021   -3.475787   -2.995495
N       1.898574   -4.206940   -3.888684
H       0.970326    1.974799    0.164479
H      -0.466345    2.017950   -0.864531
H      -0.637903    1.920620    0.892153
H       0.380390   -0.375002    0.885638
H      -1.071680   -0.316288   -0.097200
H       0.337251   -0.069065   -2.149789
H       2.510168    0.803692   -1.487365
H       2.669817   -0.411118   -0.215360
H       2.607630   -0.934846   -3.240225
H       3.913256   -1.385400   -2.141234
H       2.568761   -3.060157   -1.063534
H       0.441371   -2.515922   -0.389293
H      -0.150700   -2.358309   -2.035762
