17

O       0.171556    1.385125    0.066485
C       0.044745   -0.022633   -0.043882
C      -1.394758   -0.446782    0.028170
C      -2.065555   -0.983844    1.231443
N      -1.856634   -1.890208    0.084105
C      -2.944869   -1.546493   -0.892732
C      -2.431016   -0.077782   -1.047968
C      -3.340305    1.021245   -0.762931
N      -4.079933    1.872730   -0.507709
H      -0.192470    1.653386    0.917139
H       0.466763   -0.282123   -1.021012
H       0.626182   -0.562616    0.718661
H      -1.434540   -1.229480    2.080228
H      -3.076776   -0.674209    1.487068
H      -2.839494   -2.131654   -1.806556
H      -3.954656   -1.666606   -0.491951
H      -1.961182    0.083346   -2.020651
