17

C      -0.132444    1.463155    0.043507
C       0.050302   -0.048990    0.019717
C       0.875420   -0.549021   -1.169362
C       2.169834   -0.459378   -0.395012
C       1.234297   -0.570908    0.881755
N       1.101411   -2.063732    0.718390
C       1.584675   -1.828081   -0.666318
C       2.039311   -2.857969   -1.538092
N       2.425506   -3.695913   -2.237097
H       0.818320    1.983675   -0.115551
H      -0.825369    1.787162   -0.739523
H      -0.541817    1.788253    1.005634
H      -0.893745   -0.568020    0.212074
H       0.718629   -0.392103   -2.229087
H       3.136768   -0.032391   -0.622713
H       1.428457   -0.196513    1.884268
H       1.876254   -2.498165    1.220901
