20

C       0.117555    1.504512   -0.161633
C       0.098504   -0.014112   -0.032726
O       0.738007   -0.543975   -1.197190
C       0.367907   -1.837947   -1.508130
O       0.976018   -2.857377   -0.719341
C       0.780436   -2.884255    0.632782
N       0.638306   -1.972540    1.489926
C       0.761412   -0.538471    1.255807
C       2.249587   -0.161709    1.361945
H       1.137781    1.873623   -0.292947
H      -0.467176    1.813907   -1.031638
H      -0.311674    1.973614    0.728457
H      -0.947889   -0.360650   -0.027335
H      -0.725096   -1.958282   -1.430573
H       0.706528   -2.041827   -2.525221
H       0.805881   -3.922664    0.965955
H       0.229187   -0.054598    2.085327
H       2.798172   -0.530139    0.491336
H       2.379445    0.922082    1.423409
H       2.677155   -0.610652    2.261108
