20

C      -0.058817    1.497239   -0.030152
C       0.002465   -0.016530   -0.036062
C      -1.177406   -0.717358   -0.681671
C       1.358078   -0.666766   -0.138978
C       0.633081   -0.672989    1.186590
N       1.025838    0.020191    2.432675
C       0.576305   -1.147612    3.258835
C       0.125248   -1.850618    1.963033
O      -0.401752   -2.893098    1.694607
H       0.776405    1.932347    0.524245
H      -0.037856    1.887329   -1.054131
H      -0.982645    1.845256    0.443991
H      -1.218987   -0.487993   -1.752968
H      -1.115338   -1.801655   -0.561773
H      -2.120725   -0.385851   -0.233675
H       1.451294   -1.617809   -0.654612
H       2.230152   -0.022462   -0.208074
H       2.032078    0.141413    2.491605
H       1.369165   -1.681007    3.794856
H      -0.226029   -0.901823    3.961788
