17

C      -0.028190    1.604440    0.093369
C       0.021936    0.071597   -0.007405
C       0.775574   -0.442560   -1.222320
C       1.751290   -1.296351   -0.908369
C       1.839594   -1.449184    0.572435
O       2.135214   -0.208729    1.277649
C       0.775380   -0.584513    1.153699
C       2.335637   -2.671568    1.251343
O       2.591382   -3.700053    0.676423
H       0.983239    2.009092    0.181235
H      -0.498730    2.036214   -0.795056
H      -0.605491    1.922167    0.967071
H      -1.006616   -0.315754   -0.018210
H       0.540379   -0.099539   -2.224148
H       2.416240   -1.810811   -1.588452
H       0.267412   -0.814692    2.087783
H       2.457215   -2.552558    2.349859
