17

C       0.143778    1.569543   -0.030364
C       0.047948    0.068694   -0.006340
C       0.588852   -0.940763   -1.155422
C      -0.073121   -1.771519   -0.027708
C       0.656136   -0.908369    1.025519
O      -0.846428   -2.918441    0.439623
C      -1.846956   -2.001925    0.853132
O      -2.795576   -2.251940    1.513912
C      -1.257323   -0.846055   -0.020566
H       1.189383    1.888795   -0.098928
H      -0.397591    1.987789   -0.884476
H      -0.281872    1.993420    0.884312
H       0.072043   -0.901620   -2.115365
H       1.674874   -0.991634   -1.267424
H       1.745086   -0.977212    1.061183
H       0.210923   -0.892370    2.023251
H      -1.832900   -0.802257   -0.949902
