16

N      -0.023780    1.311652    0.074471
C      -0.006546   -0.071372    0.089540
O       0.953587   -0.740191    0.404137
N      -1.221622   -0.641414   -0.297001
C      -1.508627   -2.076930   -0.257566
C      -2.077049   -2.466102    1.064890
C      -2.966977   -1.755916    0.044822
C      -2.586020   -0.303923    0.006968
N      -3.237231    0.758789    0.180662
H       0.891596    1.718569    0.199592
H      -0.585360    1.756500   -0.635871
H      -1.081634   -2.744517   -0.992026
H      -2.302200   -3.520551    1.192999
H      -1.756906   -1.953483    1.966148
H      -3.873241   -2.189035   -0.350596
H      -2.648782    1.590482    0.136589
