23

C       0.056608    1.711731   -0.012650
C       0.009451    0.175634   -0.015243
C       0.660538   -0.436030   -1.267008
C      -0.030192   -0.082935   -2.579366
O       0.600316   -0.834330   -3.608142
C       0.669999   -0.389754    1.250158
C      -0.115657   -0.167871    2.538558
C       0.617317   -0.491472    3.829411
O      -1.259578    0.227678    2.539735
H       1.091926    2.071061   -0.068545
H      -0.486826    2.135414   -0.861937
H      -0.398339    2.110597    0.897168
H      -1.044717   -0.127257    0.014492
H       1.713992   -0.132947   -1.332926
H       0.658797   -1.530182   -1.185046
H      -1.103429   -0.327022   -2.508606
H       0.046291    0.996011   -2.780494
H       0.199593   -0.588732   -4.446935
H       0.804930   -1.478097    1.158427
H       1.685621    0.010386    1.379413
H       1.417732    0.240431    3.990837
H      -0.076072   -0.456494    4.670559
H       1.094789   -1.475672    3.775457
