19

C      -0.146601    1.536911   -0.020795
C       0.159895    0.054276   -0.016389
O       1.367769   -0.339508   -0.758835
C       1.783189   -1.172249    0.332466
C       2.137718   -0.295029    1.477800
O       2.705533    0.961430    1.284188
C       0.667305   -0.651188    1.241918
C      -0.212475   -1.301548    2.264367
O      -0.945246   -0.342830    3.019650
H       0.661503    2.115639    0.429175
H      -0.321765    1.890737   -1.041876
H      -1.057561    1.707687    0.562246
H      -0.683045   -0.507721   -0.440932
H       2.159271   -2.162840    0.099965
H       2.558458   -0.803067    2.343087
H       2.703925    1.102575    0.326967
H      -0.970486   -1.928738    1.780728
H       0.385532   -1.959419    2.915592
H      -0.306365    0.256691    3.420524
