17

O       0.049223   -0.021979   -0.161382
C       0.037704    1.169297   -0.206467
O       1.055986    1.925076    0.258496
C       0.953378    3.347811    0.161431
C       1.040262    3.952261    1.567406
O       1.128043    5.364043    1.473300
C       2.227249    5.755276    0.691556
O       2.137618    5.293403   -0.631738
C       2.118993    3.876788   -0.681926
H      -0.788663    1.776538   -0.624246
H       0.002794    3.635426   -0.304085
H       0.151493    3.718595    2.158597
H       1.921054    3.533725    2.080771
H       2.219327    6.845342    0.651169
H       3.164013    5.389017    1.153118
H       3.059693    3.454013   -0.293522
H       2.016760    3.588083   -1.730843
