18

O       0.018049   -0.092098   -0.130699
C      -0.020884    1.111885   -0.044133
C      -1.325947    1.887725    0.029911
C      -1.485866    2.819945    1.248475
C      -0.384238    3.886316    1.419364
C       0.888936    3.333681    2.052957
O       1.251198    3.648386    3.170334
N       1.595535    2.428007    1.305050
C       1.275371    1.941822   -0.028751
H      -1.384025    2.497405   -0.884199
H      -2.142393    1.162205   -0.003716
H      -2.449291    3.329987    1.146539
H      -1.550940    2.221481    2.164286
H      -0.163271    4.359902    0.453807
H      -0.728227    4.668468    2.097760
H       2.377622    2.011388    1.787222
H       2.085436    1.288806   -0.355247
H       1.199879    2.776081   -0.738740
