16

C      -0.015076    1.561976   -0.243076
C       0.033360    0.060956   -0.072066
O      -1.084995   -0.609907   -0.589529
C       1.304848   -0.710394   -0.235656
C       0.667070   -0.608442    1.136946
C       1.332536    0.139880    2.250060
F       2.206014    1.067469    1.813459
F       0.435341    0.778819    3.024335
F       2.015301   -0.693946    3.052471
H       0.896515    2.042697    0.112889
H      -0.153067    1.802623   -1.301428
H      -0.856742    1.988254    0.316232
H      -1.865442   -0.288264   -0.123731
H       1.246363   -1.669488   -0.735614
H       2.218047   -0.150713   -0.399373
H       0.143857   -1.487097    1.497092
