21

C      -0.138216    1.597383   -0.002448
C       0.006951    0.083668    0.009136
O      -1.300671   -0.396963   -0.185359
C       1.175213   -0.619236   -0.786703
C       2.151961   -0.120867    0.321874
C       0.899319   -0.631130    1.097692
C       0.951894   -1.840306    0.135326
C       0.152301   -3.102779    0.010301
C       1.662932   -3.141622    0.231224
H       0.800429    2.131919    0.138390
H      -0.575614    1.909349   -0.955643
H      -0.831024    1.898117    0.789256
H      -1.265074   -1.359083   -0.186356
H       1.338521   -0.627988   -1.866199
H       3.052476   -0.723031    0.449919
H       2.380772    0.943052    0.362079
H       0.746347   -0.653525    2.178504
H      -0.480821   -3.413004    0.837115
H      -0.216665   -3.401648   -0.967067
H       2.280535   -3.464108   -0.601246
H       2.016563   -3.475472    1.201753
