13

O       0.151682    1.485321   -0.097584
C       0.023617    0.092966   -0.006686
C       0.578310   -0.590845   -1.204092
N       1.001042   -1.127319   -2.135545
C       0.669583   -0.478609    1.237329
N       1.389501    0.321467    1.982864
O       1.867875   -0.455978    3.022041
C       1.413672   -1.708825    2.866436
C       0.645136   -1.804269    1.752655
H       0.976467    1.734830    0.341087
H      -1.050841   -0.131715    0.015981
H       1.718395   -2.414893    3.623107
H       0.148579   -2.672686    1.354052
