18

C       0.006380    1.461231   -0.028735
C       1.291034    0.714188    0.049549
C       1.864084    0.333116    1.403682
C       1.469502   -1.208407    1.513825
C       1.618216   -1.527951    2.987575
C       1.105022   -0.448297    3.584962
C       0.686414    0.451599    2.435677
C       0.028306   -0.566004    1.411350
N      -0.012439   -0.009970    0.046929
H      -0.338937    2.051473    0.812846
H      -0.303011    1.845189   -0.997128
H       1.912955    0.607294   -0.835310
H       2.867536    0.669598    1.668209
H       1.799009   -1.919841    0.756462
H       2.032514   -2.429914    3.414388
H       0.977001   -0.228031    4.635329
H       0.233429    1.409784    2.685459
H      -0.864548   -1.128893    1.687620
