22

C      -0.087722    1.441320    0.132240
C      -0.039142   -0.050614   -0.024337
C      -0.899860   -0.835338   -1.020577
C      -1.161654   -1.834745    0.130124
N      -0.368155   -1.018784    1.117250
C       1.013310   -0.900369    0.574988
C       1.778670   -2.017391   -0.098553
C       2.223966   -3.088903    0.893161
O       2.975684   -4.055160    0.174347
H       0.425679    1.936309   -0.701191
H      -1.121399    1.803991    0.151439
H       0.398146    1.753113    1.061412
H      -1.798206   -0.288375   -1.315158
H      -0.403791   -1.199019   -1.925483
H      -2.204369   -1.868279    0.451803
H      -0.806959   -2.861833   -0.000196
H       1.621979   -0.365630    1.304641
H       1.204185   -2.497212   -0.895118
H       2.671723   -1.595337   -0.575572
H       2.825679   -2.626459    1.692497
H       1.342119   -3.540445    1.373776
H       3.247597   -4.742487    0.789253
