19

C       0.120818    1.595539   -0.093968
C      -0.005356    0.082103   -0.003824
C      -1.388822   -0.490911   -0.360335
C      -1.636963   -1.600449    0.690007
O      -0.812831   -1.296246    1.824651
C       0.299183   -0.562723    1.396752
C       1.504039   -1.301598    0.761446
O       1.016336   -2.076884   -0.343395
C       1.228899   -0.679277   -0.547115
H       1.115413    1.933696    0.218015
H      -0.039696    1.945108   -1.120315
H      -0.617583    2.088062    0.547187
H      -2.143955    0.296647   -0.272526
H      -1.434287   -0.887464   -1.377844
H      -2.672612   -1.627710    1.043525
H      -1.373652   -2.582823    0.287688
H       0.602042    0.134341    2.184189
H       2.434614   -1.626146    1.213380
H       1.905702   -0.386502   -1.342738
