18

O       0.418267    0.863906    0.061241
C      -0.439354   -0.198165    0.415346
C      -1.783387   -0.091531   -0.312861
N      -1.527162   -0.038171   -1.742207
C      -2.159199   -0.820288   -2.495286
O      -1.919112   -0.827746   -3.824960
C      -2.715889   -1.731964   -4.596274
C      -4.106332   -1.307493   -4.726262
C      -5.250758   -0.955971   -4.823102
H       0.348374    0.939531   -0.899722
H       0.013663   -1.178419    0.188742
H      -0.595931   -0.146756    1.498447
H      -2.446605   -0.922482   -0.019880
H      -2.262333    0.849659   -0.014925
H      -2.925070   -1.535248   -2.161727
H      -2.232948   -1.766672   -5.576378
H      -2.665245   -2.742437   -4.168026
H      -6.262003   -0.643274   -4.914916
