17

C       0.569052    1.512436    0.421760
C      -0.114883    0.183828    0.076318
C       0.390272   -0.393772   -1.228432
N       1.736586   -0.967358   -1.249170
C       0.609749   -1.882575   -1.432525
C       0.330364   -2.817958   -0.370564
N       0.072834   -3.568914    0.469758
C      -0.034883    0.294717   -2.495633
O       0.556279    0.165879   -3.540476
H       1.650728    1.373980    0.502863
H       0.382673    2.276501   -0.341339
H       0.200312    1.899988    1.375127
H       0.052905   -0.541292    0.876961
H      -1.201423    0.320132    0.000104
H       2.144318   -0.786568   -2.168578
H       0.418899   -2.264864   -2.431689
H      -0.937688    0.933869   -2.412184
