19

O       0.261225   -0.132155   -0.145840
C       0.227468    1.069543   -0.100987
C       1.422470    1.972444    0.091670
C       1.556671    2.997505   -1.080334
O       1.298962    4.285238   -0.540600
C       1.696256    4.244741    0.806990
C       3.003918    4.888749    1.195901
C       1.669313    5.524550    1.563191
C       1.252573    2.891604    1.332730
H      -0.735576    1.625371   -0.209634
H       2.312683    1.345888    0.168062
H       2.569541    2.941039   -1.501311
H       0.838747    2.829017   -1.889731
H       3.597730    4.440623    1.985972
H       3.573704    5.364194    0.405479
H       1.373558    6.412194    1.015624
H       1.352090    5.503564    2.600352
H       0.198399    2.937797    1.632948
H       1.832681    2.542695    2.188573
