17

C       0.039390    1.563617    0.118762
C      -0.011384    0.045940   -0.077218
C      -1.443786   -0.520852   -0.054489
C      -1.563280   -2.082080    0.059396
N      -2.151948   -1.879446    1.383131
C      -2.099522   -0.514298    1.384091
O      -2.392814    0.331393    2.179381
C      -2.288194    0.055631   -1.089262
N      -2.954974    0.508721   -1.918310
H       1.076999    1.908403    0.133368
H      -0.477752    2.081916   -0.694063
H      -0.435687    1.851072    1.060122
H       0.459044   -0.233982   -1.026836
H       0.550887   -0.457226    0.718259
H      -2.233515   -2.548796   -0.666383
H      -0.597392   -2.595936    0.067277
H      -2.441832   -2.529828    2.098152
