17

C      -0.061897    1.577661    0.024780
C       0.071122    0.049748    0.007382
N       0.823202   -0.445814   -1.165375
C       2.173857   -0.828405   -0.701804
C       1.966141   -1.379825    0.717988
O       3.080934   -1.383861    1.560225
C       0.866050   -0.447246    1.219777
O       0.760697   -0.103530    2.371480
H       0.920084    2.053284   -0.055065
H      -0.669608    1.910154   -0.819873
H      -0.527220    1.903926    0.958899
H      -0.932545   -0.391696    0.034132
H       0.361107   -1.260839   -1.550807
H       2.626162   -1.542813   -1.391397
H       2.825203    0.052928   -0.654203
H       1.521413   -2.390277    0.632822
H       2.773323   -1.028761    2.408459
