22

C      -0.083640    1.426518   -0.229029
N       0.080388    0.000943   -0.002043
C       1.436983   -0.531963   -0.051487
C       0.692059   -0.476900    1.240357
C       1.154555    0.447048    2.388860
C       0.569839   -0.195282    3.660130
C       0.527173   -1.697464    3.328900
O      -0.357281   -2.458936    4.131681
C       0.052492   -1.714756    1.873700
H       0.764115    2.045341    0.108773
H      -0.213421    1.596999   -1.302741
H      -0.987930    1.778876    0.278856
H       1.564301   -1.474451   -0.580530
H       2.256258    0.176255   -0.184609
H       2.248629    0.468112    2.438840
H       0.826227    1.481607    2.260010
H       1.146469    0.035233    4.561697
H      -0.460851    0.139154    3.827323
H       1.549144   -2.108912    3.387860
H      -0.023450   -2.450475    5.034121
H      -1.038734   -1.612177    1.867778
H       0.299669   -2.641353    1.350285
