21

C       0.185002   -2.932056    0.964498
C       1.003364   -1.675661    0.649318
C       1.266868   -1.436056   -0.815931
C       0.372527   -1.828009   -1.962355
C       1.775176   -2.384636   -1.897843
C       2.823606   -1.313381   -2.316943
O       2.142941   -0.104163   -2.695942
C       2.346929   -0.382299   -1.298717
C       3.009680    0.661452   -0.461258
H      -0.829364   -2.864992    0.560000
H       0.655479   -3.828819    0.547401
H       0.100708   -3.073088    2.046103
H       0.491228   -0.798814    1.070470
H       1.965288   -1.740334    1.176579
H      -0.403539   -2.545544   -1.717166
H       0.110133   -1.109919   -2.728761
H       1.990279   -3.442830   -1.824059
H       3.807750   -1.483763   -2.738583
H       2.311926    1.472114   -0.221117
H       3.371416    0.240267    0.481815
H       3.858027    1.091416   -1.000349
