23

C      -0.271155    1.699007   -0.113598
C      -0.121815    0.174134   -0.051212
C      -1.491728   -0.518366    0.044729
O      -2.193813   -0.165405    1.230789
C       0.733809   -0.410343   -1.188305
C       0.146215   -0.230812   -2.583701
C       2.254129   -0.108974   -1.079330
C       2.406350   -1.624818   -0.861221
O       0.982708   -1.830969   -0.933177
H       0.698823    2.206660   -0.103043
H      -0.806537    2.014243   -1.015572
H      -0.849673    2.043833    0.746819
H       0.416204   -0.078675    0.875487
H      -2.140983   -0.199182   -0.777728
H      -1.358516   -1.605311   -0.034016
H      -1.717765   -0.548727    1.974411
H       0.018212    0.828110   -2.829043
H       0.810427   -0.676165   -3.329781
H      -0.826500   -0.724190   -2.666655
H       2.716987    0.290412   -1.983516
H       2.537334    0.512687   -0.228082
H       2.938861   -2.166577   -1.652875
H       2.817623   -1.931656    0.108181
