17

O       0.037025    1.575074    0.013345
C       0.022552    0.182839    0.033405
C      -1.332717   -0.607081   -0.126388
C      -1.833943   -0.000498   -1.434343
O      -0.590829    0.029583   -2.197122
C       0.338879   -0.569109   -1.278219
C      -0.456522   -1.783621   -0.700214
C       0.224755   -2.616931    0.264937
C       0.787277   -3.326260    1.056901
H      -0.122708    1.839817   -0.901972
H       0.595534   -0.167087    0.890943
H      -2.039209   -0.751699    0.687982
H      -2.574501   -0.612700   -1.958516
H      -2.223532    1.016083   -1.315619
H       1.321905   -0.648451   -1.737841
H      -0.944327   -2.388266   -1.469839
H       1.283302   -3.951919    1.756982
