20

C      -0.517038    1.385354   -0.024162
C       0.142377    0.021819   -0.019981
O       1.414878    0.017916   -0.724905
C       2.095122   -0.535907    0.406616
C       3.088256   -1.642694    0.295051
C       3.522480   -0.243724    0.718172
C       0.850208   -0.465237    1.250962
C       0.632190   -0.060737    2.653602
N       0.431308   -1.462077    2.220059
H       0.142561    2.136067    0.419518
H      -0.748926    1.688969   -1.049774
H      -1.456076    1.361937    0.540407
H      -0.529293   -0.737248   -0.447937
H       3.050463   -2.426593    1.044127
H       3.359053   -1.966351   -0.704113
H       4.071299    0.348184   -0.006670
H       3.804926   -0.072621    1.752268
H       1.477850    0.093267    3.318687
H      -0.238198    0.550119    2.881531
H      -0.560597   -1.667606    2.120717
