18

O      -0.587272    0.911063   -1.206604
C      -0.071179    0.068968   -0.182326
C      -1.245716   -0.822670    0.259771
C      -1.224136   -2.016126   -0.723609
C      -1.907124   -1.898291   -2.115039
C      -0.482258   -1.677717   -2.657453
O       0.014801   -1.355582   -3.699330
N       0.105315   -1.935617   -1.401604
C       0.953858   -0.940933   -0.753825
H       0.147350    1.319659   -1.676231
H       0.344297    0.661898    0.644170
H      -1.084147   -1.176149    1.282480
H      -2.180578   -0.258754    0.240519
H      -1.388858   -2.968927   -0.215384
H      -2.431748   -2.784232   -2.478755
H      -2.534673   -1.015523   -2.248831
H       1.634945   -0.495118   -1.484323
H       1.551286   -1.395662    0.045059
