19

C      -0.196666   -1.272252   -0.211589
C      -0.098417   -0.080461   -0.074737
C       0.013992    1.360887    0.076442
C      -0.229088    2.029399    1.438633
C       0.992543    1.949193    2.339118
C       2.053889    0.878813    2.085474
C       2.525773    1.159563    0.631258
C       1.431964    2.062996    0.050759
C       0.954320    2.958593    1.227761
H      -0.286668   -2.323883   -0.327446
H      -0.623807    1.848006   -0.668991
H      -1.209284    2.252473    1.844104
H       0.819792    2.294012    3.353089
H       2.876461    0.973450    2.801128
H       1.646022   -0.130389    2.189143
H       3.480598    1.696964    0.631367
H       2.655929    0.243871    0.047784
H       1.684527    2.537531   -0.897090
H       1.030811    4.033137    1.322207
