20

C      -0.127674    1.544534   -0.057544
C       0.029541    0.044260    0.044101
C       1.385089   -0.637470   -0.176545
C       2.568528    0.133139   -0.413187
C       3.566546    0.774471   -0.620060
C       0.701309   -0.657679    1.197736
C       1.308590    0.138247    2.336124
C       0.119339   -1.991385    1.629233
H       0.775321    2.074483    0.251333
H      -0.337415    1.836883   -1.091943
H      -0.960069    1.894433    0.562963
H      -0.800316   -0.508279   -0.391437
H       1.354328   -1.576975   -0.722307
H       4.449837    1.334165   -0.802848
H       1.815395    1.041074    1.992502
H       0.536533    0.429740    3.057674
H       2.049191   -0.467505    2.870345
H       0.882276   -2.621279    2.101274
H      -0.687870   -1.846497    2.357278
H      -0.294412   -2.544651    0.780301
