17

O       0.002399   -0.016613    0.141533
C      -0.014912    1.162577   -0.018913
C      -1.051661    2.312795    0.020850
O      -0.026640    2.974999    0.831125
C       0.992668    2.339036   -0.006905
C       0.987997    3.032362   -1.419081
C      -0.071514    4.173213   -1.340527
C      -1.103133    3.005516   -1.390689
C      -0.060320    2.285313   -2.301270
H      -2.003465    2.215942    0.542883
H       1.960469    2.266847    0.489058
H       1.990136    3.226767   -1.802348
H      -0.068307    4.835816   -0.477805
H      -0.091492    4.747541   -2.268597
H      -2.119967    3.174004   -1.746540
H      -0.079124    2.669371   -3.323554
H      -0.046664    1.192328   -2.328808
