18

C       0.137009    1.461183   -0.223144
C       0.039255   -0.030360    0.126439
O       0.608681   -0.283282    1.406747
C      -1.370530   -0.560496    0.044476
C      -2.221917   -0.595374   -1.050958
N      -2.070746   -0.125159   -2.359063
N      -3.380021   -1.156347   -0.621516
N      -3.351654   -1.506113    0.691787
C      -2.136021   -1.148157    1.081133
H       1.176915    1.794967   -0.164152
H      -0.243885    1.669303   -1.228253
H      -0.464592    2.052381    0.477073
H       0.686960   -0.590251   -0.563888
H       0.127225    0.255718    2.044674
H      -1.097926   -0.046632   -2.624436
H      -2.552130   -0.692772   -3.046385
H      -4.226325   -1.294744   -1.147034
H      -1.821110   -1.337127    2.096659
