9

O       0.010909   -0.052182    0.002951
C      -0.014861    1.158090    0.009797
N      -1.124168    2.017683    0.028756
C      -0.679372    3.314855    0.030029
N       0.613954    3.388582    0.013506
N       1.018571    2.073765    0.000897
H      -2.073340    1.688279    0.039689
H      -1.333261    4.172444    0.043173
H       1.996820    1.846008   -0.012780
