12

C      -0.037834    1.552084    0.029872
C       1.540510    1.404750   -0.067412
C       1.296575   -0.013911    0.434306
N       1.650589   -1.228614    0.811400
C       0.411801   -1.755037    1.103009
N      -0.651837   -0.959033    0.932536
N      -0.017967    0.152829    0.499430
H      -0.401304    2.262429    0.775348
H      -0.559841    1.692420   -0.918861
H       1.941548    1.488059   -1.079197
H       2.099652    2.058100    0.604723
H       0.288919   -2.768293    1.456244
