19

C       0.111064    1.420674    0.072885
N      -0.193208    0.004068    0.004475
C       0.085787   -0.788471    1.193686
C      -0.117471   -0.588553   -1.223442
C       0.005144   -0.087717   -2.495757
C      -0.048856   -1.247502   -3.315061
C       0.029787   -1.327685   -4.806588
N      -0.177984   -2.350668   -2.616387
O      -0.218714   -1.926731   -1.264784
H       1.184959    1.634522   -0.044886
H      -0.436550    1.957132   -0.706321
H      -0.213974    1.806751    1.042267
H      -0.376324   -0.303768    2.058146
H      -0.341233   -1.784303    1.080544
H       1.164524   -0.891531    1.387681
H       0.124682    0.935619   -2.804651
H       0.969127   -0.899976   -5.172336
H      -0.029820   -2.368858   -5.129281
H      -0.788455   -0.768460   -5.272172
