16

N       0.560527   -1.061632   -0.091210
C       0.306142    0.066166   -0.081495
C      -0.017485    1.487677   -0.058340
C      -0.246690    2.236455    1.314481
C       0.979539    2.924779    2.042333
C       2.456931    2.586364    1.762923
C       2.322026    2.120603    0.318107
C       1.129745    2.514188   -0.174184
C       0.412328    3.478289    0.788225
H      -0.890145    1.672053   -0.695314
H      -1.189594    2.175693    1.851021
H       0.691136    3.342452    3.005422
H       3.091948    3.459818    1.966052
H       2.856651    1.754212    2.353798
H       2.807743    1.205717   -0.006577
H      -0.003451    4.452422    0.568946
