17

N       0.089364   -1.159275    0.165178
C       0.035743   -0.007754    0.067344
C      -0.005329    1.442076   -0.026091
C      -0.377944    2.254534    1.263756
C       0.878173    3.149363    1.067174
C       2.111004    2.725511    1.900989
C       2.488853    1.681008    0.804994
C       1.347918    2.214829   -0.105180
H      -0.656589    1.718549   -0.859799
H      -1.339423    2.765193    1.190470
H      -0.368361    1.663266    2.182175
H       0.687652    4.215070    0.938459
H       2.852502    3.523234    1.991824
H       1.902237    2.337851    2.902297
H       3.487103    1.812057    0.382954
H       2.382062    0.632419    1.094239
H       1.634034    2.571071   -1.094674
