19

C       0.046123    1.446965    0.564199
C       1.140035    2.126738   -0.309438
C       2.030955    0.976587   -0.862232
C       2.367761    0.983561   -2.332997
C       1.971750   -0.131409   -2.952663
C       1.292361   -1.115010   -2.022519
C       1.156077   -0.281438   -0.758764
O       1.025493   -0.840642    0.542524
C      -0.029715    0.014874    0.050996
H       0.318362    1.439137    1.624752
H      -0.917676    1.957056    0.476930
H       0.660428    2.640908   -1.149642
H       1.711356    2.878010    0.242472
H       2.934576    0.870665   -0.247241
H       2.889535    1.805719   -2.811297
H       2.124559   -0.345543   -4.004806
H       0.331324   -1.479093   -2.403839
H       1.915690   -2.001817   -1.843232
H      -0.985728   -0.482898   -0.094335
