18

C      -0.073815    1.552782    0.019132
C       0.005708    0.055648   -0.039902
C       0.756949   -0.744379   -1.108953
C      -0.311958   -1.872451   -0.976841
O       0.186533   -3.085608   -0.391270
C       0.718749   -2.916182    0.843789
N       0.636133   -1.901343    1.599500
C      -0.223251   -0.832211    1.170968
C      -1.121559   -0.992470   -0.024498
H       0.894215    1.988706    0.293037
H      -0.364718    1.972276   -0.951148
H      -0.807935    1.884502    0.760235
H       0.717117   -0.264878   -2.091048
H       1.789823   -1.032796   -0.892620
H      -0.797491   -2.173774   -1.902981
H       1.266348   -3.804603    1.151381
H      -0.656819   -0.296545    2.009688
H      -2.198515   -0.888617    0.003232
