13

N      -0.059780   -1.187382   -0.134689
C      -0.046708   -0.035960   -0.044271
C       0.011155    1.426847    0.051756
N      -0.568820    1.902631    1.333152
C       0.306972    2.653645    1.869364
N       1.538445    2.898767    1.194333
C       2.354295    1.650909    1.129972
C       1.438464    2.001102    0.022070
H      -0.580143    1.839026   -0.774809
H       0.147327    3.145973    2.823965
H       3.419956    1.817261    1.016330
H       2.073388    0.838079    1.793864
H       1.828678    2.378467   -0.915609
