20

C      -0.036979    1.524246    0.155656
C       0.010206   -0.001375   -0.000603
N       0.651358   -0.447816   -1.230519
C       2.090333   -0.705285   -1.208163
C       2.445995   -2.126633   -0.763440
C      -0.034609   -0.791650   -2.371160
N      -1.406306   -0.529950   -2.359731
O       0.501188   -1.330155   -3.327598
H       0.970118    1.951814    0.134730
H      -0.609080    1.993153   -0.652170
H      -0.503859    1.800142    1.106836
H       0.559142   -0.435559    0.842925
H      -0.998007   -0.422991    0.047382
H       2.472349   -0.531017   -2.215543
H       2.551177    0.033133   -0.542163
H       2.056009   -2.346263    0.236280
H       2.027706   -2.849408   -1.467818
H       3.532831   -2.257287   -0.735948
H      -1.726456    0.305241   -1.893586
H      -1.796154   -0.645511   -3.283575
