16

O       0.020583   -0.056093    0.080594
C       0.000465    1.147375    0.037966
N      -1.169636    1.871369    0.062053
C      -1.324383    3.318121   -0.048256
C      -0.001701    3.960867    0.399991
C       1.141273    3.249397   -0.302427
O       1.160504    1.852485    0.017103
C      -1.711759    3.736321   -1.403184
C      -2.036870    4.075888   -2.509262
H      -1.989957    1.293763   -0.032170
H      -2.119308    3.626996    0.642087
H      -0.000665    5.025813    0.157231
H       0.101711    3.848025    1.483613
H       1.058672    3.371177   -1.389899
H       2.113478    3.632400    0.014409
H      -2.326399    4.369773   -3.488357
