17

O      -0.442517    1.633012    0.628308
C      -0.421430    0.569161   -0.245840
C      -0.087011   -0.808210    0.176714
C      -1.543880   -0.511693   -0.211227
C      -2.517714   -0.373485    0.878594
O      -2.218727    0.051560    1.989211
C      -3.954798   -0.715274    0.602601
C      -4.654896   -0.137174   -0.563506
O      -4.258267   -1.500832   -0.550841
H      -0.859325    1.321258    1.450365
H      -0.131750    0.891423   -1.240703
H       0.465429   -1.456364   -0.494221
H       0.083847   -0.971527    1.235962
H      -1.913024   -0.913494   -1.145653
H      -4.532044   -0.938212    1.497786
H      -5.725147    0.046773   -0.489964
H      -4.109891    0.506479   -1.251672
