14

O      -0.909787    1.221246   -0.011825
C       0.234008    0.943756   -0.260370
C       1.405097    1.927773   -0.319186
O       2.508206    1.465703   -0.589665
C       1.180969    3.328519   -0.061730
C       0.062006    4.098320    0.258182
C       0.491105    5.431115    0.387089
C       1.859242    5.450864    0.144338
N       2.259873    4.186896   -0.122969
H       0.575064   -0.090180   -0.481463
H      -0.935596    3.710567    0.377452
H      -0.116716    6.288897    0.628870
H       2.558732    6.272257    0.145749
H       3.188955    3.862622   -0.339928
