22

C      -0.046481    1.455015   -0.142990
N       0.031957    0.025556    0.069503
C      -1.041999   -0.625934    0.011496
O      -1.058037   -1.955537    0.231578
C      -2.278951   -2.639404   -0.002139
C      -2.447833   -3.381262   -1.349928
C      -3.072049   -4.566664   -0.555639
C      -2.737830   -5.989100   -0.975581
C      -2.408366   -3.987012    0.729231
H       0.598308    1.738846   -0.982767
H      -1.064952    1.824112   -0.350441
H       0.334013    1.981282    0.740207
H      -2.031678   -0.188525   -0.200279
H      -3.125449   -1.973820    0.207519
H      -3.039169   -2.903636   -2.134893
H      -1.465030   -3.649046   -1.750188
H      -4.159198   -4.441954   -0.498837
H      -1.653678   -6.134646   -1.038960
H      -3.131257   -6.717947   -0.258209
H      -3.164466   -6.224872   -1.956870
H      -1.414608   -4.417401    0.886283
H      -2.963263   -4.012275    1.669538
