16

N       0.049578    1.266940    0.472860
C      -0.013042    0.142965   -0.279280
O       0.866145   -0.211231   -1.040997
C      -1.291976   -0.705620   -0.128313
C      -1.873869   -1.164232   -1.508465
O      -1.652316   -2.549325   -1.212207
C      -0.983676   -2.234607    0.016297
C      -2.269011   -0.185696    0.807047
C      -3.075690    0.252579    1.585659
H       0.869768    1.845777    0.400309
H      -0.699484    1.526308    1.092105
H      -2.932380   -0.932141   -1.661134
H      -1.272048   -0.820583   -2.355565
H       0.087457   -2.455191   -0.026991
H      -1.447674   -2.717360    0.881900
H      -3.801359    0.621511    2.268265
