23

C       0.209710    1.625340   -0.093241
C      -0.150321    0.140538    0.092034
C       0.612156   -0.527440    1.215101
C      -0.018996   -0.927601    2.323847
C       0.602392   -1.566663    3.543643
C       1.537867   -2.750514    3.272464
O       2.767731   -2.391955    2.673484
C       2.693152   -2.062856    1.301092
C       2.109904   -0.673776    1.010635
H       1.274760    1.760535   -0.307850
H      -0.353071    2.061204   -0.924710
H      -0.022468    2.195621    0.811752
H      -1.226168    0.051708    0.277601
H       0.049874   -0.389899   -0.850138
H      -1.093108   -0.759098    2.378281
H       1.167856   -0.819942    4.120258
H      -0.195348   -1.921512    4.206766
H       1.805938   -3.222959    4.223794
H       1.017854   -3.501009    2.654595
H       3.726897   -2.095864    0.939848
H       2.118989   -2.829277    0.754720
H       2.359219   -0.427125   -0.028616
H       2.652061    0.051194    1.633777
