15

C      -0.019529    1.665127   -0.015344
C      -0.036818    0.146076   -0.016602
C       0.754815   -0.569408   -1.127946
O       1.703417   -1.085490   -0.134645
C       1.005707   -0.541619    0.904441
O       1.217176   -0.631850    2.070373
O      -1.365759   -0.365950    0.078391
C      -1.972740   -0.360595    1.297293
O      -3.108215   -0.700082    1.424765
H       0.994239    2.043167   -0.175048
H      -0.669005    2.041897   -0.810691
H      -0.379334    2.052658    0.941890
H       0.214335   -1.382648   -1.612478
H       1.262359    0.067692   -1.853232
H      -1.309007   -0.038435    2.115715
