13

O      -0.047103   -0.037038    0.002990
C      -0.049225    1.170866    0.010504
C      -1.273322    2.084146    0.032052
C      -0.691876    3.492895    0.032650
O      -1.292215    4.534109    0.046265
C       0.818120    3.350235    0.010108
C       1.153426    2.039835   -0.001995
C       1.671771    4.470137    0.004103
C       2.374875    5.447826   -0.000610
H      -1.911949    1.919340   -0.841264
H      -1.888667    1.908985    0.919929
H       2.156161    1.632000   -0.018665
H       2.996230    6.309827   -0.004946
