17

O       0.851418    1.191312    1.317025
C       0.574801    1.791503    0.311581
C       1.155872    1.477242   -1.062746
N       1.222840    2.667719   -1.882195
C       2.267575    3.565657   -1.600411
C       3.096675    3.561331   -0.494180
N       3.927417    4.658723   -0.602537
C       3.651690    5.341318   -1.751964
C       2.622680    4.694439   -2.396579
H      -0.161641    2.626231    0.297934
H       2.119146    0.959348   -0.924640
H       0.462198    0.768231   -1.533375
H       1.139806    2.472990   -2.869591
H       3.160842    2.893562    0.347636
H       4.632172    4.909658    0.066694
H       4.201229    6.229088   -2.020539
H       2.164492    4.992099   -3.327375
