16

N       0.024903   -1.168650   -0.082659
C      -0.028202   -0.012390   -0.033134
C      -0.050619    1.408354    0.027919
C      -1.154160    2.165884   -0.070970
C      -0.851309    3.627242    0.054948
C      -0.988138    4.207033    1.486761
O       0.418380    4.009700    1.735203
C       0.672825    3.658070    0.357586
C       1.216932    2.231871    0.197617
H      -2.155401    1.773181   -0.204204
H      -1.257591    4.237501   -0.754274
H      -1.263045    5.269276    1.512829
H      -1.616086    3.649540    2.190020
H       1.280453    4.418101   -0.143856
H       1.788124    1.942024    1.085467
H       1.878965    2.125098   -0.669664
