18

C       0.215585    1.371595   -0.047205
N      -0.010662   -0.056975   -0.007729
C       0.653358   -0.777643   -0.808926
N       0.542881   -2.162384   -0.868963
C       1.300225   -2.896974   -1.887694
C       2.743482   -2.699984   -1.786304
C       3.930499   -2.527459   -1.718624
C      -0.291045   -2.855625   -0.006386
N      -0.434405   -4.118808   -0.082598
H       0.954006    1.683047   -0.803894
H      -0.728176    1.890470   -0.252336
H       0.561670    1.719361    0.933312
H       1.383690   -0.385609   -1.527962
H       1.043466   -3.950178   -1.746313
H       0.954473   -2.607771   -2.888549
H       4.981285   -2.388107   -1.652042
H      -0.774796   -2.182259    0.701922
H      -1.076161   -4.443077    0.636964
