17

C       0.214396    1.535885    0.008207
C       1.326918    0.515138   -0.007803
C      -0.113375    0.067453    0.003508
C      -0.694772   -0.627293    1.247593
C      -1.392658   -1.834416    0.671416
C      -1.405318   -1.827330   -0.660160
C      -0.718390   -0.614072   -1.236622
H       0.046565    2.094941    0.923686
H       0.029245    2.104636   -0.897914
H       1.893903    0.391738   -0.925504
H       1.911237    0.382036    0.897586
H       0.082870   -0.899639    1.973166
H      -1.404373    0.016843    1.787729
H      -1.844500   -2.596541    1.297011
H      -1.869049   -2.582799   -1.285126
H      -1.438066    0.035704   -1.756284
H       0.045290   -0.878603   -1.979705
