22

C      -0.076564    1.554885   -0.027289
C      -0.022033    0.028839    0.075146
C       0.864587   -0.466347    1.226137
C       0.875353   -1.983011    1.336272
C       1.611529   -2.741951    2.462501
C       0.981763   -2.180309    3.765424
C      -0.327198   -2.778096    3.252626
C       0.390105   -3.740390    2.384869
N      -0.408515   -2.659898    1.748017
H       0.921179    1.979119   -0.188417
H      -0.712556    1.876504   -0.858060
H      -0.478751    1.999669    0.889928
H      -1.032310   -0.373823    0.211627
H       0.347091   -0.389837   -0.870460
H       1.896900   -0.118059    1.077626
H       0.517786   -0.018511    2.164384
H       1.140348   -2.418802    0.365184
H       2.673826   -2.974964    2.409976
H       1.330390   -2.736252    4.639893
H       1.053083   -1.106681    3.963112
H      -1.273585   -2.889262    3.764967
H       0.273472   -4.795644    2.176607
