23

C      -0.121206    1.649978   -0.204229
C       0.027277    0.146818    0.060069
C      -1.325803   -0.521574    0.333268
C       0.731102   -0.531444   -1.109626
O       2.012446    0.047393   -1.342412
C       2.928211   -1.002718   -1.624633
C       2.058016   -2.273281   -1.652824
C       2.705410   -3.527086   -1.098004
O       0.955289   -1.893238   -0.836097
H       0.850191    2.114735   -0.387500
H      -0.756616    1.834421   -1.078912
H      -0.587834    2.145472    0.652804
H       0.680969    0.000617    0.929182
H      -1.995864   -0.417946   -0.528810
H      -1.205685   -1.587384    0.541286
H      -1.818740   -0.054408    1.191525
H       0.127878   -0.430449   -2.034121
H       3.434062   -0.818521   -2.579563
H       3.685413   -1.056185   -0.830364
H       1.703841   -2.452861   -2.681649
H       3.041879   -3.358488   -0.070728
H       1.996769   -4.359536   -1.099111
H       3.568553   -3.812440   -1.707646
