20

C       0.162029    1.597722   -0.029739
C       0.049689    0.068053    0.004631
C       0.640535   -0.548158   -1.262976
C       0.898231   -2.022140   -1.029447
O       1.841480   -2.181252    0.029823
C       1.622145   -1.525804    1.202701
O       2.238380   -1.862153    2.186090
N       0.696565   -0.505777    1.192665
C       0.311840    0.041456    2.486762
H       1.212402    1.906434   -0.024997
H      -0.305051    1.978205   -0.943612
H      -0.339125    2.068746    0.818953
H      -1.021030   -0.191816    0.050291
H      -0.044746   -0.393824   -2.101907
H       1.589761   -0.060060   -1.512710
H      -0.031078   -2.553698   -0.780510
H       1.347195   -2.509201   -1.897941
H       0.625276   -0.655308    3.261696
H       0.782064    1.011505    2.684914
H      -0.776558    0.170363    2.523896
