17

C       0.165120    1.319901   -0.280154
C       0.117323   -0.160512    0.099035
C       0.863077   -0.458911    1.393456
O       1.407187    0.372500    2.072466
C      -1.311692   -0.664534    0.213725
N      -1.981902   -1.039262   -1.029640
C      -1.704918   -2.092130   -0.032974
C      -0.732645   -3.093667   -0.402123
N       0.053530   -3.900453   -0.662528
H       1.199032    1.660034   -0.369847
H      -0.344367    1.481894   -1.233407
H      -0.314477    1.936403    0.486010
H       0.604257   -0.765843   -0.678944
H       0.873837   -1.533963    1.680908
H      -1.909330   -0.159054    0.972261
H      -2.970201   -0.802049   -1.008318
H      -2.531396   -2.484333    0.553376
