17

C       0.054763    1.440646   -0.307412
C       0.042662   -0.009519    0.100567
O       1.295655   -0.709714    0.123019
C       0.593634   -0.550714    1.358722
C       1.259513    0.305449    2.411449
C      -0.029738   -1.850321    1.879349
C       0.933444   -2.705005    2.574181
N       1.698534   -3.367437    3.131601
H       0.865242    1.995573    0.167328
H       0.182141    1.519320   -1.391965
H      -0.897106    1.916262   -0.047690
H      -0.762843   -0.588130   -0.359574
H       1.715274    1.192446    1.971520
H       0.534056    0.622119    3.168788
H       2.045757   -0.263981    2.916644
H      -0.849229   -1.620160    2.570901
H      -0.453616   -2.410696    1.040844
