17

O       0.015742    1.381417    0.094002
C       0.041040   -0.013005   -0.026467
C      -0.584284   -0.639634   -1.237552
C      -1.299905   -0.676656    0.116905
C      -1.437663   -1.989626    0.822067
O      -2.440843   -2.648782    0.803781
O      -0.336574   -2.458139    1.472000
C       0.687995   -1.522594    1.850599
C       1.205601   -0.731804    0.656105
H       0.666362    1.745638   -0.516906
H      -1.026432    0.020028   -1.975101
H      -0.166649   -1.561840   -1.627735
H      -2.174257   -0.042352    0.192097
H       0.287592   -0.842599    2.612884
H       1.470158   -2.130700    2.310010
H       1.722611   -1.403917   -0.036791
H       1.928025    0.013613    1.001706
