21

C      -0.059536    1.475782   -0.072030
C       1.282786    0.747411    0.023203
C       2.094735    0.678416    1.311715
C       2.063874   -0.750422    1.887044
C       0.632325   -1.160076    2.276053
C      -0.385336   -0.974054    1.141144
C      -0.464680   -1.982115   -0.032164
O      -0.386765   -0.913272   -1.007845
C      -0.012201   -0.003954    0.025802
H      -0.414765    2.045260    0.783088
H      -0.315553    1.902078   -1.036466
H       1.846845    0.707397   -0.904124
H       3.126819    0.992514    1.126232
H       1.692098    1.375403    2.058721
H       2.469929   -1.445347    1.140251
H       2.712101   -0.823876    2.767449
H       0.609303   -2.198909    2.627076
H       0.321420   -0.545629    3.131116
H      -1.383713   -0.780820    1.544937
H       0.397971   -2.658751   -0.105027
H      -1.389162   -2.558741   -0.133426
