15

O      -0.058460   -0.018841    0.007405
C      -0.015693    1.171885    0.004339
O       1.144371    1.858099   -0.104055
C       1.094875    3.274091   -0.134166
C       2.173055    4.003148    0.659803
C       3.512536    3.675733    0.105481
C       2.676936    4.717006   -0.631285
C       1.623721    4.003934   -1.417767
O       1.204952    4.070634   -2.535420
H      -0.897265    1.835985    0.093412
H       0.081174    3.632847    0.085882
H       2.026773    4.456220    1.630843
H       4.361475    4.093415    0.635651
H       3.695998    2.705389   -0.342838
H       3.024990    5.731121   -0.774542
