18

C       0.100389    1.473785    0.098823
C      -0.039903   -0.004352    0.020998
C      -1.113741   -0.827176   -0.142456
C      -0.607951   -2.170509   -0.136037
N      -1.350995   -3.353638   -0.205331
C       0.745220   -2.065523    0.031047
C       1.812168   -3.098290    0.112542
O       1.647179   -4.115661   -0.883998
O       1.097766   -0.736150    0.125935
H       0.747495    1.860212   -0.697169
H      -0.879611    1.946157    0.002018
H       0.538085    1.785619    1.054080
H      -2.143003   -0.519666   -0.251053
H      -2.172871   -3.274453   -0.789148
H      -0.778622   -4.133306   -0.507413
H       2.794565   -2.609373    0.042862
H       1.788543   -3.647813    1.061760
H       1.614849   -3.665305   -1.735669
