17

C      -0.488453    1.455514    0.566002
C      -0.209057    0.065220    0.101606
N      -0.906533   -0.607163   -0.789356
C      -0.289927   -1.835211   -0.905974
C       0.791287   -1.909775   -0.068121
N       0.834192   -0.686515    0.566811
C      -0.798692   -2.870787   -1.826545
C       0.027082   -3.442720   -2.906818
O      -0.211124   -4.170052   -1.702288
H       0.336577    2.138617    0.332783
H      -1.385676    1.816102    0.061788
H      -0.658437    1.499221    1.648003
H       1.492929   -2.699026    0.139311
H       1.502515   -0.408766    1.265901
H      -1.879043   -2.864093   -1.968920
H      -0.450352   -3.846067   -3.799416
H       1.044096   -3.077116   -3.039300
