19

C       0.058684    1.536804   -0.039036
C      -0.047857    0.045432    0.064635
C      -1.348828   -0.774086    0.022177
C      -0.700878   -1.784780    1.041533
C      -1.398226   -1.844001    2.393724
O      -0.434521   -3.086141    0.537286
C       0.574126   -0.930222    1.028535
N       1.086730   -0.784280   -0.328157
H       1.078948    1.860797    0.181837
H      -0.189919    1.877108   -1.051459
H      -0.627072    2.032153    0.656943
H      -2.214522   -0.253049    0.441387
H      -1.616821   -1.187336   -0.956290
H      -2.387774   -2.308518    2.303516
H      -0.804552   -2.435833    3.097430
H      -1.537223   -0.842363    2.812177
H      -1.274168   -3.549024    0.443386
H       1.249397   -0.780320    1.864953
H       0.826490   -1.581951   -0.906087
