16

O      -0.229012    0.090609    0.247447
C      -0.117949    1.270264    0.049030
N      -1.209930    2.137248   -0.328972
C      -0.658439    3.395684    0.071139
C      -0.705184    3.961984    1.286043
C       0.713893    4.218263    1.768701
C       1.539768    3.496675    0.699757
C       1.161501    2.103370    0.008710
C       0.730093    3.436202   -0.534193
H      -2.094901    1.850193    0.071926
H      -1.535891    3.862873    1.975057
H       1.035310    5.268071    1.838750
H       0.819682    3.790388    2.773140
H       2.607906    3.687646    0.645996
H       2.032337    1.572339   -0.360899
H       0.944300    3.824464   -1.523104
