19

O       0.015028    1.368303   -0.064114
C      -0.013891   -0.027402   -0.017910
C      -0.479493   -0.738788    1.241272
C      -1.354032   -0.669885   -0.003360
C      -2.636889    0.135166   -0.011165
C      -3.791295   -0.799644    0.364996
O      -3.769881   -1.966843   -0.451293
C      -2.543448   -2.632582   -0.347075
O      -1.456939   -1.841380   -0.776173
H       0.755782    1.667482    0.473306
H       0.744826   -0.536099   -0.612145
H      -0.011442   -1.686380    1.483362
H      -0.759153   -0.122278    2.089495
H      -2.574259    0.982280    0.675544
H      -2.803986    0.528695   -1.019686
H      -3.715300   -1.087406    1.427031
H      -4.764118   -0.328150    0.205928
H      -2.374813   -2.954591    0.697629
H      -2.585593   -3.497059   -1.012020
