17

C      -0.021487    1.544080    0.031305
C       1.526633    1.536889    0.023438
O       2.118471    1.384855    1.333613
C       2.096028   -0.061702    1.245014
C       1.022536   -0.722513    2.120178
O      -0.039266    0.150654    2.504544
C      -0.251673   -0.700623    1.374905
C      -0.028236   -0.026829    0.020580
C       1.523196    0.006667   -0.192794
H      -0.488791    2.027309    0.889379
H      -0.424995    1.955358   -0.898287
H       2.058144    2.278416   -0.576118
H       3.092004   -0.488553    1.399425
H       1.289949   -1.485965    2.846595
H      -1.028276   -1.451235    1.501410
H      -0.627673   -0.483130   -0.767844
H       1.992741   -0.532743   -1.013304
