20

C      -0.387348    1.416557   -0.551764
O      -0.301622    0.015607   -0.648414
C       0.979399   -0.481564   -0.320829
C       0.926706   -1.990982   -0.426663
C       1.054878   -2.704497   -1.769780
C       2.601721   -2.499616   -1.737660
C       2.917881   -3.985537   -1.922621
C       1.681677   -3.921667   -1.024359
N       2.259104   -2.714186   -0.230518
H      -0.170631    1.769960    0.468967
H       0.310318    1.918529   -1.241348
H      -1.408981    1.701793   -0.814812
H       1.741498   -0.057499   -0.995763
H       1.261715   -0.194816    0.706877
H       0.149602   -2.376197    0.244756
H       0.391279   -2.714114   -2.640300
H       3.175158   -1.630011   -2.060328
H       2.780686   -4.399659   -2.924571
H       3.838017   -4.345001   -1.454478
H       1.152447   -4.716175   -0.494778
