24

C      -0.270311    1.545872    0.174656
C      -0.034038    0.043224    0.004103
C       0.595083   -0.610243    1.238411
C       0.902303   -2.100898    1.053929
O       1.793101   -2.334371   -0.038240
C       1.444484   -2.715842    2.328859
N       0.461189   -3.110502    3.352420
C       1.287939   -4.146307    2.703125
C       0.580995   -5.179134    1.859116
H       0.670274    2.077357    0.359771
H      -0.726513    1.981926   -0.719684
H      -0.935171    1.751105    1.021296
H      -0.986799   -0.455715   -0.217031
H       0.611988   -0.141378   -0.861069
H       1.529402   -0.086917    1.498799
H      -0.068574   -0.502312    2.105640
H      -0.021699   -2.617659    0.777150
H       2.618622   -1.876582    0.156605
H       2.358521   -2.231492    2.681438
H       0.807431   -2.900429    4.284190
H       2.106638   -4.550949    3.298453
H      -0.278757   -4.750306    1.340610
H       1.261610   -5.598680    1.111191
H       0.214840   -5.999044    2.486317
