16

C       0.209017    1.438617    0.093683
C       0.315741   -0.058798   -0.115490
O       1.228332   -0.708326    0.348262
C      -0.787027   -0.707014   -0.937184
C      -0.804939   -2.248090   -0.887234
O      -2.015997   -2.726106   -1.406830
C       0.362646   -2.856403   -1.647574
O       0.171979   -3.619030   -2.566323
H       1.109187    1.810387    0.584141
H       0.058913    1.955705   -0.860159
H      -0.664455    1.663785    0.716702
H      -1.763578   -0.348777   -0.591274
H      -0.703857   -0.357918   -1.975817
H      -0.681154   -2.551906    0.166031
H      -1.765341   -3.335206   -2.120711
H       1.373426   -2.568753   -1.312022
