17

C       0.072909    1.428141    0.073189
C      -0.072816   -0.106664   -0.004337
C       0.735632   -0.692324   -1.207179
N       2.038807   -0.908041   -0.602682
C       1.921065   -1.117360    0.768134
O       2.782858   -1.510434    1.519402
N       0.615203   -0.779041    1.102028
C      -1.488143   -0.475408   -0.069680
C      -2.657654   -0.744154   -0.126679
H       1.131612    1.700958    0.053544
H      -0.436010    1.905938   -0.768624
H      -0.373610    1.805594    0.997369
H       0.268629   -1.621787   -1.556142
H       0.775692    0.017729   -2.037370
H       2.745098   -1.445507   -1.080232
H       0.431187   -0.508696    2.055726
H      -3.688802   -0.995153   -0.172945
