17

C      -0.092872    1.468990    0.024020
C      -0.014591    0.016938    0.006183
C       0.060449   -1.188846   -0.011165
C       0.137229   -2.594965   -0.029427
C       1.233812   -3.447785   -0.071307
C       0.749986   -4.780802   -0.069870
N       1.537765   -5.943137   -0.179455
C      -0.631337   -4.714479   -0.027276
N      -0.986966   -3.386826   -0.008049
H       0.908713    1.913342    0.017022
H      -0.630014    1.856127   -0.849873
H      -0.608588    1.835591    0.919401
H       2.265473   -3.133564   -0.106439
H       2.431558   -5.840565    0.284374
H       1.073469   -6.761359    0.193927
H      -1.374221   -5.495465   -0.018323
H      -1.925129   -3.030783    0.031082
