15

N      -0.012654   -1.144383   -0.074030
C       0.012225    0.009028   -0.027411
C      -0.013412    1.475862    0.047588
C      -0.706663    1.971994    1.329330
C      -0.481468    3.455161    1.461605
C       0.465508    4.082235    0.768749
C       1.401915    3.348387   -0.149033
O       1.324623    1.936188   -0.015416
H      -0.580872    1.842488   -0.824200
H      -1.776818    1.740671    1.278609
H      -0.308143    1.431074    2.196312
H      -1.130603    4.002636    2.138418
H       0.600099    5.157854    0.839402
H       1.219219    3.644271   -1.197773
H       2.443215    3.604669    0.075548
