21

O      -0.171750    1.435350   -0.108835
C      -0.041404    0.023663   -0.161960
C      -1.408305   -0.576014    0.178464
C      -1.426854   -2.074213    0.132273
C      -1.605240   -2.908740    1.162362
C      -1.532959   -4.358861    0.747494
C      -1.703020   -4.280832   -0.791190
O      -3.059078   -4.469483   -1.174265
C      -1.205208   -2.859036   -1.150155
H       0.682542    1.824833   -0.316268
H       0.277364   -0.309421   -1.162313
H       0.707190   -0.340293    0.559483
H      -1.701341   -0.221548    1.172251
H      -2.133721   -0.164483   -0.536456
H      -1.758452   -2.593786    2.189535
H      -0.565847   -4.802421    1.024471
H      -2.309638   -4.994233    1.186783
H      -1.151360   -5.063892   -1.316753
H      -3.580239   -3.803449   -0.710722
H      -1.754628   -2.463954   -2.012357
H      -0.141752   -2.867453   -1.427980
