18

C       0.079040    1.648313    0.052093
C       0.086931    0.121723    0.093122
N       0.640916   -0.427259   -1.145215
C      -0.293288   -0.542592   -2.305806
C       0.535337   -1.727996   -2.916743
C       0.453572   -1.890668   -1.357305
C      -1.078822   -1.817971   -1.773308
C      -0.740585   -2.540951   -3.068651
O      -1.225830   -3.334308   -3.817321
H       1.086024    2.031542   -0.134146
H      -0.576198    2.020127   -0.742968
H      -0.283051    2.059076    0.999199
H       0.730425   -0.223035    0.912001
H      -0.929724   -0.252746    0.307583
H      -0.710811    0.303919   -2.849900
H       1.443403   -1.638826   -3.505987
H       0.933091   -2.662446   -0.755010
H      -1.958955   -1.858932   -1.138385
