18

C      -0.179957    1.663526   -0.010042
C      -0.000681    0.160600   -0.015334
O      -1.252478   -0.403804   -0.333640
C       1.170332   -0.548592   -0.768094
C       2.458143    0.095446   -0.233505
C       2.093113    0.046531    1.288768
C       0.712384   -0.609956    1.141672
O       0.985966   -1.674311    0.162300
H       0.741404    2.196988    0.228138
H      -0.530714    1.995555   -0.991867
H      -0.942421    1.940396    0.724290
H      -1.114874   -1.360547   -0.331395
H       1.098874   -0.827509   -1.820017
H       3.331699   -0.513458   -0.474221
H       2.625110    1.105777   -0.615010
H       2.771566   -0.588524    1.861670
H       2.054393    1.029296    1.765074
H       0.176157   -0.951151    2.027951
