17

O       0.046132    1.428497    0.167014
C       0.099401    0.026049   -0.028432
C      -1.322480   -0.575927    0.078210
O      -1.918027   -0.139152    1.280374
C      -2.108215   -0.063674   -1.080775
N      -2.665751    0.390838   -1.985684
C      -1.294308   -2.098793    0.059302
C      -1.019465   -2.836701    1.316325
N      -2.361901   -2.860286    0.708750
H      -0.307880    1.833451   -0.634263
H       0.567258   -0.247465   -0.982006
H       0.696429   -0.381046    0.791317
H      -1.631011    0.778503    1.399305
H      -0.961753   -2.510866   -0.890503
H      -0.478536   -3.777390    1.276958
H      -0.879669   -2.252341    2.219871
H      -2.962306   -2.215430    1.219148
