25

C      -0.262362    1.544556   -0.003259
C       0.035076    0.045333    0.003018
C       0.773616   -0.484535   -1.270794
C       1.948660   -1.329466   -0.708278
C       2.515616   -2.349305   -1.683282
C       2.996454   -0.337015   -0.139394
C       2.308109    0.236653    1.138409
C       0.938978   -0.480722    1.149798
C       1.322565   -1.869478    0.602081
H       0.641030    2.142458   -0.162886
H      -0.962739    1.796572   -0.806972
H      -0.713982    1.866843    0.941941
H      -0.924941   -0.478627    0.090737
H       0.110408   -1.101080   -1.887034
H       1.135193    0.330677   -1.907920
H       2.937012   -1.860654   -2.569661
H       3.315417   -2.939457   -1.221470
H       1.741646   -3.044571   -2.027729
H       3.922652   -0.864125    0.113705
H       3.256704    0.437728   -0.868000
H       2.876046   -0.020278    2.037973
H       2.218156    1.325408    1.123560
H       0.445295   -0.463846    2.124809
H       0.459431   -2.521233    0.427684
H       2.043550   -2.403643    1.230878
