9

N      -0.046366    1.293127   -0.056912
C      -0.033138    0.037704    0.049714
O       1.151291   -0.674443    0.178890
N       1.172613   -2.102343   -0.037707
N       0.099446   -2.688200   -0.143146
C      -1.117432   -1.962572   -0.006690
N      -1.220562   -0.699589    0.079301
H       0.903594    1.664849   -0.086336
H      -1.998488   -2.596194    0.013929
