18

C      -0.007828    1.591817   -0.006505
O       1.255032    2.230602   -0.087658
C       2.049957    1.779765   -1.171308
C       2.212807    0.263180   -1.174667
C       2.488192   -0.465963    0.135354
C       1.192754   -0.584329    0.868612
C       0.115524    0.071619    0.012494
C       0.905487   -0.559528   -1.155373
N       1.547254   -1.595071   -0.188763
H      -0.471424    1.965065    0.912301
H      -0.651069    1.893446   -0.852420
H       1.612742    2.100228   -2.133832
H       3.015672    2.283534   -1.061529
H       2.888885   -0.069039   -1.967438
H       3.442417   -0.648774    0.616085
H       1.145389   -0.858672    1.916257
H      -0.855783   -0.411057    0.152213
H       0.418888   -0.895483   -2.069234
