15

C      -0.021051    1.541272   -0.011076
C      -0.010842    0.005485   -0.015210
C      -1.435700   -0.565510   -0.066124
N       0.789719   -0.502688   -1.144143
C       1.740902   -1.154930   -0.625255
O       1.819391   -1.243434    0.745368
C       0.724301   -0.520570    1.223279
O       0.496049   -0.397369    2.384615
H       0.996198    1.941844   -0.003448
H      -0.527282    1.905200   -0.908456
H      -0.546917    1.906611    0.874901
H      -1.942145   -0.202877   -0.963905
H      -1.421207   -1.658286   -0.096838
H      -1.994555   -0.248377    0.818222
H       2.533213   -1.673257   -1.152130
