22

C       0.006041    1.629382    0.135658
C       0.005070    0.106540   -0.046389
C      -1.396463   -0.521792   -0.082355
C      -2.172466   -0.158025   -1.347277
O      -3.491712   -0.721964   -1.334806
C      -3.608638   -1.935264   -0.744191
N      -2.749702   -2.615740   -0.114266
C      -1.404672   -2.060408    0.067353
C      -0.427404   -2.810572   -0.850031
H       1.028479    2.013485    0.201710
H      -0.481201    2.143936   -0.698644
H      -0.517728    1.917491    1.053697
H       0.551046   -0.153234   -0.961929
H       0.565988   -0.350547    0.778665
H      -1.968831   -0.122887    0.767132
H      -2.317159    0.919386   -1.451003
H      -1.649354   -0.517581   -2.243927
H      -4.625096   -2.304578   -0.872136
H      -1.118242   -2.294554    1.101259
H      -0.594143   -2.565989   -1.904348
H       0.612694   -2.580484   -0.602389
H      -0.580232   -3.886537   -0.734199
