17

C       0.133969    1.599706   -0.269999
C       0.036260    0.099692   -0.045914
N       1.040893   -0.711309   -0.770526
C       1.691426   -1.163539    0.339513
O       2.707177   -1.794114    0.517063
C       0.650706   -0.496980    1.264933
C       1.165771    0.430543    2.361444
N       2.364691    0.040964    2.865068
O       0.529915    1.388116    2.759359
H       1.158584    1.954343   -0.125639
H      -0.179462    1.853500   -1.288284
H      -0.506652    2.124993    0.440900
H      -0.984141   -0.250332   -0.232792
H       1.307281   -0.731750   -1.744555
H      -0.004457   -1.237079    1.733971
H       2.885608   -0.710767    2.434256
H       2.776771    0.586881    3.603915
