17

C      -0.018873    1.547913    0.026045
C       0.025336    0.042628    0.030808
C       0.949022   -0.811041   -0.912777
C       0.697936   -1.953109    0.125504
C       0.645645   -0.813282    1.194825
C      -0.785365   -2.193437   -0.088256
O      -1.420108   -3.204954   -0.180687
C      -1.285889   -0.707217   -0.158743
O      -2.398573   -0.290620   -0.318410
H       0.978120    1.975502    0.169990
H      -0.420427    1.919966   -0.921761
H      -0.671525    1.918114    0.822916
H       0.637797   -0.967481   -1.949249
H       1.981732   -0.455010   -0.877308
H       1.340290   -2.825137    0.217041
H       1.646327   -0.457491    1.452807
H       0.054771   -0.971787    2.101110
