11

N      -0.017267    1.354753    0.008862
C       0.058469   -0.002442    0.001468
O       1.094127   -0.635951   -0.011205
C      -1.239459   -0.672671    0.010227
C      -2.264693   -1.321534    0.016552
C      -3.414868   -2.028168    0.023749
C      -4.453700   -2.659512    0.030284
C      -5.616465   -3.363293    0.037593
N      -6.613024   -3.963472    0.043806
H       0.841137    1.881897    0.003184
H      -0.898163    1.839080    0.018953
