16

O      -0.133196   -0.058560    0.206849
C      -0.028166    1.110270   -0.088081
C       1.237502    1.854146   -0.027354
C       1.359641    3.157079   -0.307422
C       2.782689    3.639406   -0.090632
C       3.590519    2.304978   -0.002395
C       2.547556    1.236230    0.403395
C       3.263464    4.554451   -1.125722
N       3.642415    5.273074   -1.947592
H      -0.903578    1.702903   -0.432517
H       0.559009    3.821223   -0.612331
H       2.831702    4.182532    0.864972
H       3.995261    2.074972   -0.991091
H       4.430052    2.382878    0.690178
H       2.541143    1.055982    1.485526
H       2.724064    0.266672   -0.068981
