20

C      -0.476923    1.330196   -0.069496
C       0.019336   -0.105066   -0.004434
N       1.246705   -0.412087   -0.760333
C       1.923673   -1.086923    0.344801
C       0.746909   -0.639721    1.277080
C       1.131678    0.384603    2.334192
O      -0.017789   -1.691531    1.828118
C       1.495311   -0.516834   -2.086008
O       2.484410   -1.036179   -2.562271
H       0.318551    2.044309    0.159125
H      -0.857980    1.559968   -1.069423
H      -1.298910    1.478609    0.638326
H      -0.795298   -0.797162   -0.251667
H       1.984079   -2.172610    0.216017
H       2.916964   -0.688951    0.575082
H       1.698940    1.215376    1.905858
H       0.242715    0.784456    2.830447
H       1.767178   -0.084837    3.095417
H       0.430921   -2.014079    2.617406
H       0.695910   -0.051654   -2.699164
