13

C      -0.032600   -1.218274   -0.032996
C      -0.045969   -0.017690   -0.004660
C      -0.027202    1.436232    0.017953
C       1.425956    2.017411    0.036198
C       1.410701    3.474009   -0.094668
C       1.360963    4.666575   -0.218212
C       2.144130    1.605447    1.253237
N       2.703442    1.280930    2.209739
H      -0.030972   -2.280374   -0.046061
H      -0.524912    1.842188   -0.868821
H      -0.566310    1.819656    0.890175
H       1.963461    1.584360   -0.817053
H       1.332852    5.723620   -0.322129
