17

C       0.159824    1.477006    0.081492
C       0.007344   -0.042399   -0.065137
C       0.576555   -0.563864   -1.342965
O       2.027601   -0.263351   -1.676074
C       1.601929   -1.112239   -2.829962
C       0.882818   -2.034973   -1.799742
O       1.682274   -2.791702   -0.955410
C       0.346261   -0.216739   -2.831833
O      -0.323857    0.462253   -3.539772
H       1.214114    1.764786    0.054118
H      -0.353358    2.000376   -0.730426
H      -0.264455    1.816614    1.030107
H       0.486989   -0.566698    0.770770
H      -1.052329   -0.326198   -0.041196
H       2.349083   -1.340852   -3.586295
H       0.049890   -2.650356   -2.147091
H       2.410853   -2.210610   -0.692587
