18

C      -0.008718    1.563290   -0.086248
C       0.011391    0.073050    0.063409
C       0.437080   -1.022835   -0.867268
C       1.187821   -0.811802    0.434185
C       0.615457   -1.895398    1.358619
C      -0.580925   -1.467217    1.899935
C      -1.082184   -0.827119    0.634359
N      -0.627194   -1.989121   -0.467593
C       0.141037   -3.001617    0.394888
H       0.911543    1.918815   -0.561147
H      -0.850850    1.893845   -0.704405
H      -0.090206    2.058090    0.887856
H       0.863684   -1.003110   -1.863543
H       2.204183   -0.446209    0.493931
H      -1.225978   -2.169891    2.424237
H      -2.134427   -0.571695    0.523908
H       0.906566   -3.471771   -0.227561
H      -0.520862   -3.747004    0.833481
