17

O      -0.020376    1.291557    0.120607
N       0.036839   -0.107506    0.132390
C      -1.108600   -0.636040   -0.000517
C      -2.465827   -0.013449   -0.215871
N      -3.315795   -1.064041   -0.809821
C      -2.739454   -1.631100   -2.037451
C      -2.562977   -2.343688   -0.750372
C      -1.229791   -2.152081   -0.046611
O      -0.160470   -2.786853   -0.714130
H       0.907156    1.541169    0.196805
H      -2.905751    0.301829    0.738445
H      -2.411677    0.871026   -0.857168
H      -3.467631   -1.989183   -2.758058
H      -1.862032   -1.155213   -2.471684
H      -3.142387   -3.232834   -0.526080
H      -1.312938   -2.534321    0.985658
H       0.631596   -2.275622   -0.504833
