19

C      -0.311518    1.425281    0.008830
N       0.097540    0.037401    0.005876
C       0.742872   -0.437401   -1.246470
C       1.809162   -1.412554   -0.725316
N       2.934399   -0.586555   -0.212274
C       2.390831    0.121009    1.004996
C       0.946756   -0.421600    1.113231
C       1.180460   -1.858050    0.600544
O       1.015878   -2.930065    1.107440
H       0.520360    2.140856   -0.125838
H      -1.025481    1.592931   -0.804446
H      -0.817042    1.662358    0.950484
H       0.010108   -0.921702   -1.902692
H       1.231004    0.376797   -1.802356
H       2.141055   -2.183967   -1.416521
H       3.691941   -1.201742    0.066975
H       2.975754   -0.113586    1.900696
H       2.423877    1.205282    0.857131
H       0.462285   -0.322473    2.082986
