23

C      -0.541351    1.367227    0.036786
C      -0.065237   -0.082853    0.016013
C       0.785160   -0.478735   -1.208729
C       1.701176   -1.653396   -0.751440
O       3.089044   -1.319912   -0.821870
C       1.347946   -1.883657    0.726085
C       0.771305   -0.543058    1.235980
C       1.883603    0.430572    1.639772
O      -0.143459   -0.717233    2.318166
H       0.293835    2.070651   -0.048573
H      -1.223591    1.565873   -0.796530
H      -1.076206    1.580771    0.967262
H      -0.953433   -0.727703    0.041005
H       0.161428   -0.744405   -2.067594
H       1.422270    0.357429   -1.520527
H       1.516867   -2.559323   -1.344757
H       3.292076   -1.099709   -1.736678
H       0.559075   -2.637707    0.811080
H       2.219586   -2.235401    1.285563
H       2.602442    0.572101    0.829042
H       1.473167    1.398729    1.938382
H       2.442084    0.021081    2.491013
H       0.369157   -0.864638    3.119507
