12

N       0.026631   -1.113846   -0.004944
C       0.035994    0.040041    0.002237
C      -0.010238    1.500536    0.012010
O       1.334206    1.989583   -0.000614
C       1.439426    3.315178    0.006093
N       0.415560    4.135106    0.022943
O       1.040871    5.393194    0.023127
C       2.352107    5.155356    0.006496
N       2.677688    3.902548   -0.004877
H      -0.557315    1.866568   -0.864327
H      -0.536620    1.855371    0.905463
H       3.008371    6.013397    0.003953
