14

O      -0.011211    1.419711   -0.104499
C       0.031999    0.029104   -0.020699
C       0.369937   -0.637655    1.372704
C      -1.005738   -1.312090    1.326839
N      -1.997814   -0.204315    1.207343
C      -1.324475   -0.700102   -0.006155
C      -1.378161   -2.589085    1.837402
N      -1.670881   -3.627021    2.258327
H      -0.700892    1.705563    0.509771
H       0.696049   -0.326541   -0.810363
H       1.199573   -1.343267    1.310860
H       0.516717    0.049378    2.207931
H      -2.934057   -0.606186    1.240535
H      -1.891362   -1.111342   -0.832189
