15

O       0.460834    0.144571    0.607998
C       0.548127    1.334611    0.627586
O       0.736767    2.067094   -0.488436
C       0.887424    3.493161   -0.327857
C       2.310642    3.905495   -0.292532
C       3.128301    4.530670   -1.182410
C       4.411084    4.630758   -0.553944
C       4.273890    4.054072    0.668140
O       3.002563    3.611381    0.847582
H       0.473859    1.953640    1.542629
H       0.393774    3.947647   -1.188154
H       0.364570    3.812039    0.582531
H       2.852326    4.874784   -2.167026
H       5.308419    5.069778   -0.960054
H       4.947849    3.885805    1.491828
