20

C       0.418357    1.626192   -1.111277
O      -0.168945    0.347311   -1.009826
C       0.751508   -0.725898   -0.871097
C       1.308343   -0.826303    0.550307
C       0.011155   -2.007182   -1.286629
C      -1.426451   -2.160517   -0.910143
N      -1.053689   -1.911132   -2.308583
C       0.861480   -3.168464   -1.377775
C       1.597618   -4.117643   -1.433630
H       0.925263    1.927900   -0.184542
H       1.145012    1.672118   -1.936271
H      -0.389762    2.333743   -1.311297
H       1.582777   -0.579082   -1.580098
H       1.892773    0.060355    0.811451
H       0.489547   -0.928549    1.268534
H       1.960928   -1.698489    0.637484
H      -1.815659   -3.152943   -0.705922
H      -1.873887   -1.348942   -0.344571
H      -1.186986   -0.917780   -2.493541
H       2.233422   -4.965876   -1.494683
