16

C      -0.000702    1.637158   -0.003486
C      -0.059191    0.120475   -0.004953
O      -1.347080   -0.364403   -0.245111
C       1.169341   -0.650093   -0.623631
O       1.963117   -0.191429    0.531658
C       0.690411   -0.651279    1.117640
C       0.816937   -1.921257    0.210785
C      -0.274486   -2.823002   -0.111009
N      -1.068713   -3.624076   -0.363648
H       1.003177    1.994396    0.223941
H      -0.293187    2.025036   -0.987044
H      -0.704649    2.034679    0.733663
H      -1.706706    0.064262   -1.028872
H       1.629926   -0.597666   -1.610487
H       0.577908   -0.604928    2.200566
H       1.715036   -2.489343    0.459129
