22

C      -0.051058    1.511638   -0.013853
C      -0.033479    0.003495   -0.095231
C       0.751318   -0.723094   -1.128747
N       1.232617   -0.647152    0.272236
C       1.126250   -2.011677    0.844810
C       0.679925   -2.977067   -0.253549
C      -0.707868   -2.858029   -0.835900
C       0.449805   -2.161368   -1.513777
C       0.904661   -2.609436   -2.883715
H       0.899360    1.925820   -0.361252
H      -0.857538    1.927429   -0.627973
H      -0.204581    1.843864    1.018804
H      -0.950908   -0.469062    0.250132
H       1.316258   -0.149040   -1.861205
H       2.120741   -2.300043    1.201854
H       0.459761   -2.005464    1.715849
H       1.168937   -3.945214   -0.303611
H      -1.102085   -3.737499   -1.336984
H      -1.467349   -2.287186   -0.314804
H       0.324382   -2.123172   -3.676701
H       1.961265   -2.369618   -3.050043
H       0.784442   -3.690423   -3.003495
