11

C      -0.052498    1.399513    0.027279
N       0.000965   -0.047216    0.050597
N      -0.050770   -0.779365   -1.045369
N       0.023144   -2.032751   -0.653219
C       0.117444   -1.984034    0.693514
O       0.212273   -3.062572    1.471604
N       0.107232   -0.751178    1.181532
H       0.860060    1.810408    0.464711
H      -0.142100    1.702174   -1.015237
H      -0.915955    1.746521    0.599003
H       0.198854   -3.833039    0.889527
