19

C       0.812681    1.102290   -0.085005
C      -0.100974   -0.107560   -0.008859
O      -0.873409   -0.269658    0.910081
C       0.007312   -1.104580   -1.151085
C      -0.791610   -2.383644   -0.896033
N      -0.798922   -3.270802   -2.056239
C       0.330594   -3.998605   -2.359533
N       0.131911   -4.982734   -3.322239
O       1.407558   -3.813341   -1.820386
H       1.855863    0.782824    0.022355
H       0.731304    1.593390   -1.060752
H       0.566110    1.806632    0.710419
H      -0.345068   -0.611633   -2.068258
H       1.058502   -1.353433   -1.329834
H      -0.376225   -2.897802   -0.022558
H      -1.826672   -2.128245   -0.661558
H      -1.684441   -3.690183   -2.290674
H      -0.568165   -4.809932   -4.028290
H       1.001038   -5.339484   -3.689860
