20

C       0.021193    1.499412    0.252282
C      -0.008264    0.052968    0.093875
C      -0.039897   -1.145770   -0.021476
C      -0.051102   -2.570466   -0.204972
C       0.850330   -3.175869   -1.284169
C       0.314159   -4.609186   -1.503161
C      -1.187422   -4.541235   -1.133952
C      -1.280520   -3.427231   -0.106603
N      -0.313981   -3.404090    0.994622
H       0.913301    1.933269   -0.213205
H      -0.854579    1.971823   -0.206961
H       0.031539    1.780539    1.311275
H       0.747474   -2.574794   -2.194302
H       1.908447   -3.155423   -1.003172
H       0.474780   -4.958117   -2.525948
H       0.836171   -5.318878   -0.853212
H      -1.793015   -4.269265   -2.006928
H      -1.571559   -5.497635   -0.762028
H      -2.249618   -2.999788    0.131975
H       0.275809   -4.233680    0.989374
