12

C      -0.390974   -0.809737   -0.965423
C      -0.081861    0.059455   -0.196424
C       0.304079    1.118087    0.729545
C       1.526388    1.865024    0.284246
C       2.323385    1.733397   -0.806771
O       3.292506    2.643878   -0.747797
N       3.075310    3.380161    0.455855
N       2.056308    2.905038    1.018251
H      -0.676509   -1.582156   -1.636224
H      -0.525924    1.825746    0.854213
H       0.482934    0.694838    1.726597
H       2.308922    1.067139   -1.652436
