13

C       0.018261    1.464407    0.007569
C       0.022938    0.014880    0.002566
C       0.024791   -1.196549   -0.001850
C       0.024344   -2.550506   -0.006708
C       0.025618   -3.765161   -0.011108
C       0.002259   -5.205259   -0.015837
O      -1.028192   -5.852109    0.002437
C       1.311763   -5.827221   -0.044274
C       2.395810   -6.349678   -0.067847
H       1.037104    1.865389    0.040390
H      -0.470354    1.855382   -0.891874
H      -0.525805    1.849961    0.876970
H       3.350054   -6.817636   -0.088626
