17

O       0.048654   -0.041041    0.007284
C       0.009708    1.167276   -0.021285
C      -1.288867    2.021335   -0.062931
C      -0.788007    3.424948   -0.419556
C      -1.243520    4.741601    0.252403
C       0.063723    5.504059    0.372815
C       1.141992    4.722688    0.171153
C       0.692914    3.367419   -0.087052
C       1.150734    2.110069    0.049436
H      -2.014497    1.594550   -0.758306
H      -1.733400    1.990309    0.938817
H      -0.872736    3.572077   -1.504920
H      -2.004265    5.285541   -0.316137
H      -1.663525    4.566638    1.253199
H       0.102568    6.550619    0.654871
H       2.175203    5.028138    0.276266
H       2.161619    1.786606    0.259592
