16

O      -0.024187    0.033558    0.097440
C      -0.015825    1.227891    0.006717
N      -1.013681    2.180695    0.013063
C      -0.130831    3.345319    0.008446
C       0.352859    3.812080    1.406680
C       1.520443    2.785196    1.356219
C       1.081846    2.335254   -0.086405
C       2.048465    2.290204   -1.141650
C       2.866286    2.254743   -2.023073
H      -1.961286    2.091696    0.355294
H      -0.350197    4.087690   -0.758448
H       0.699677    4.847820    1.408456
H      -0.376792    3.687156    2.209668
H       2.506873    3.249347    1.353545
H       1.510509    1.983295    2.096382
H       3.584610    2.212028   -2.804003
