18

C       0.072831    1.516279    0.098177
C      -0.010117    0.027042    0.000851
C      -0.133156   -0.709495   -1.108469
C      -0.103522   -2.163961   -0.798106
N       1.179464   -2.608530   -0.153748
C       0.048946   -2.273757    0.700685
C       0.064113   -0.849024    1.244024
C      -0.877612   -3.169046   -1.549806
O      -1.575523   -2.931494   -2.504735
H       1.037138    1.832027    0.516018
H      -0.043259    1.989241   -0.880236
H      -0.701865    1.913035    0.766621
H      -0.223143   -0.333664   -2.119196
H       1.254307   -3.624874   -0.224893
H      -0.441298   -3.065623    1.258935
H       0.972392   -0.656002    1.827815
H      -0.789205   -0.669496    1.911145
H      -0.759421   -4.209765   -1.158930
