21

C      -0.184951    1.662545   -0.256411
C       0.029576    0.166349   -0.109775
C       1.068637   -0.466062   -1.074588
C       1.845111   -0.814567    0.208845
O       0.864231   -0.158828    1.041477
C      -1.264997   -0.637937    0.004841
C      -2.298157   -0.255883    1.087879
C      -3.252588   -0.043698   -0.103916
O      -2.207465   -0.346590   -1.055736
H       0.774787    2.173278   -0.371896
H      -0.804293    1.864267   -1.134976
H      -0.680476    2.080690    0.625050
H       0.707539   -1.310323   -1.664169
H       1.563172    0.246823   -1.736042
H       1.926088   -1.884171    0.438635
H       2.836615   -0.358084    0.312262
H      -1.005685   -1.705682    0.014533
H      -2.565773   -1.057989    1.775961
H      -2.060739    0.639236    1.663043
H      -4.082440   -0.757569   -0.174473
H      -3.645201    0.970768   -0.240274
