17

C      -0.298938    1.311817   -0.871901
C      -0.054186    0.068415   -0.043244
C       1.069196   -0.840919   -0.425327
N       1.162434   -0.025473    0.792037
C      -1.253858   -0.530212    0.598548
N      -2.459933   -0.261278    0.152265
O      -3.333256   -0.986297    0.957541
C      -2.617338   -1.665290    1.866851
C      -1.293583   -1.428984    1.706430
H       0.631656    1.649767   -1.338632
H      -1.032109    1.115761   -1.658536
H      -0.693488    2.121983   -0.250741
H       0.984030   -1.910421   -0.255451
H       1.659075   -0.563780   -1.295466
H       1.749906    0.788206    0.626688
H      -3.188133   -2.264484    2.559437
H      -0.462141   -1.797038    2.281579
