14

O      -0.034094    1.380234    0.002414
C      -0.023392   -0.014434    0.010964
C       1.070830   -0.602537    0.732844
C       1.976251   -1.117698    1.333138
C      -1.334443   -0.816079    0.056584
C      -2.369099   -0.046539   -0.750823
O      -1.456765    0.047835   -1.892968
C      -0.504818   -0.768138   -1.207821
H      -0.315042    1.635257   -0.888073
H       2.782050   -1.559969    1.864976
H      -1.513890   -1.610998    0.766450
H      -3.247478   -0.637672   -1.025089
H      -2.667354    0.937789   -0.377642
H       0.064595   -1.492686   -1.777860
