19

O      -0.664810    0.760407   -0.548394
C       0.184069    0.964181    0.282562
C       1.330779    1.947419    0.161347
C       1.354791    2.785118   -1.141888
C       0.947379    4.195094   -0.687628
C      -0.479314    4.188112   -0.044604
C       0.185572    4.034096    1.325770
C       1.546583    4.370710    0.738957
C       1.301545    2.996387    1.288900
H       0.171406    0.410522    1.250788
H       2.245041    1.347420    0.274209
H       2.364587    2.794176   -1.564977
H       0.672548    2.373191   -1.890144
H       1.133081    4.976490   -1.424035
H      -0.960549    5.165520   -0.133671
H      -1.175327    3.413753   -0.380336
H      -0.236036    4.343492    2.275550
H       2.315627    5.055140    1.071914
H       1.724753    2.739999    2.253798
