16

O       0.053433   -0.057226    0.304211
C       0.028484    1.134249    0.081243
C      -1.293292    1.882148   -0.096713
C      -1.167313    3.135713   -0.989244
C      -0.020749    4.045270   -0.489788
C       1.235025    3.270966   -0.201975
C       1.257534    1.953270    0.032935
C      -0.955384    2.763165   -2.394012
N      -0.798213    2.480301   -3.503332
H      -2.041166    1.183342   -0.476057
H      -1.621633    2.204038    0.900608
H      -2.108108    3.696253   -0.952738
H       0.181752    4.833906   -1.220983
H      -0.352257    4.557691    0.424619
H       2.162634    3.837932   -0.184926
H       2.183815    1.420798    0.222366
