19

C       0.008179    1.549681    0.126077
C       1.545566    1.547661   -0.107542
C       1.426799    0.084370   -0.629770
C       2.412427   -0.963907   -0.175628
O       2.849147   -0.899114    1.190422
C       1.967849   -1.954787    0.816328
C       0.556910   -1.861278    1.363703
O       0.044101   -0.547145    1.322431
C       0.012217    0.010330    0.021431
H      -0.359452    1.945937    1.074273
H      -0.544427    2.011124   -0.696562
H       1.953622    2.290710   -0.795513
H       2.101831    1.576845    0.830571
H       1.346088    0.054607   -1.720936
H       3.205322   -1.235104   -0.872663
H       2.405358   -2.954168    0.821487
H      -0.085215   -2.564911    0.804026
H       0.540131   -2.159126    2.417334
H      -0.778961   -0.470055   -0.573710
