19

O      -0.774678    1.055991    0.944552
C      -0.027775    0.126649    0.140340
C       0.930091   -0.728335    0.990303
C       0.078894   -1.918290    1.514153
C      -1.324491   -1.778389    0.849980
O      -2.283384   -1.185066    1.707681
C      -1.035909   -0.892504   -0.389714
C      -1.909317   -3.123084    0.442484
O      -1.309823   -3.954218   -0.190289
H      -0.150492    1.603882    1.431130
H       0.488512    0.670464   -0.660944
H       1.750862   -1.086383    0.360732
H       1.383206   -0.138409    1.794008
H       0.528151   -2.871584    1.227004
H      -0.044647   -1.913387    2.598801
H      -2.036766   -0.252610    1.786904
H      -1.941544   -0.428733   -0.787170
H      -0.568938   -1.499560   -1.171677
H      -2.960190   -3.267336    0.773688
