21

C      -0.075271    1.512927    0.115129
C      -0.040285    0.003622    0.098942
C       1.278335   -0.695904   -0.210243
C       0.680329   -0.782802    1.173187
O       1.277889   -0.082757    2.226574
C      -0.110251   -2.024284    1.473036
C      -1.478231   -1.796680    2.061973
C      -1.330760   -2.009855    0.575063
C      -1.301953   -0.763743   -0.312986
H       0.829798    1.917940    0.574613
H      -0.158154    1.919118   -0.899661
H      -0.932968    1.880049    0.690536
H       1.278967   -1.578301   -0.843734
H       2.143600   -0.050132   -0.321819
H       2.090674   -0.540550    2.465697
H       0.416234   -2.949625    1.689961
H      -1.916185   -2.601494    2.642266
H      -1.716648   -0.801310    2.424189
H      -1.709606   -2.935534    0.156934
H      -2.196772   -0.145493   -0.168381
H      -1.275385   -1.036730   -1.375029
