16

C       0.078736    1.486332   -0.005217
C       0.039884   -0.009070    0.007426
N      -0.002406   -0.635971   -1.139041
N      -0.043121   -1.960533   -1.109599
N       0.023381   -2.761896   -0.037265
C       0.038834   -2.171176    1.125334
N       0.040836   -2.963139    2.258660
C       0.012305   -0.711630    1.283854
N      -0.026312   -0.052811    2.394655
H       0.969644    1.850444    0.517451
H       0.074692    1.856027   -1.031601
H      -0.778360    1.892438    0.541967
H      -0.051120   -2.425805   -2.001027
H       0.218667   -3.938777    2.061223
H       0.613151   -2.610368    3.014004
H      -0.112068   -0.679848    3.194888
