17

C      -0.170688    0.948821   -0.508322
C       1.134476    1.043767    0.260520
C       0.363447   -0.233957    0.259291
O      -0.242928   -0.586681    1.468052
C      -1.346343   -1.427962    1.300914
C      -1.123025   -2.916253    1.208123
C      -1.695658   -2.291168    2.467069
H      -1.026406    1.462260   -0.084299
H      -0.141302    0.926187   -1.592166
H       2.067323    1.087188   -0.289927
H       1.121649    1.611679    1.183674
H       0.750511   -1.079178   -0.308976
H      -2.152306   -0.994491    0.709584
H      -1.774102   -3.504702    0.571003
H      -0.096420   -3.261721    1.257146
H      -1.038769   -2.226008    3.326808
H      -2.742373   -2.446514    2.702308
