18

C       0.179288    1.517063    0.018622
C       0.092419    0.010289   -0.022736
O       0.848155   -0.506269   -1.114429
C       1.267196   -1.787284   -0.709814
C       2.511227   -1.828065    0.155464
C       1.129642   -1.842268    0.778818
C       0.591843   -2.981699    1.596311
O       0.658216   -0.557902    1.151614
H       1.223166    1.824095    0.116471
H      -0.235394    1.938904   -0.900367
H      -0.389473    1.899274    0.870040
H      -0.954835   -0.330055   -0.120477
H       1.005931   -2.598034   -1.382285
H       3.083752   -2.750611    0.169861
H       3.084663   -0.912096    0.234744
H       0.959374   -3.938206    1.213120
H       0.910168   -2.891497    2.640160
H      -0.502654   -2.996903    1.573870
