15

C       0.164912    1.471618    0.068325
C      -0.032197    0.006064   -0.014778
C      -1.119808   -0.793647   -0.157327
O      -2.402784   -0.339647   -0.258043
C      -0.674623   -2.162989   -0.161262
C       0.679640   -2.090922   -0.020183
N       1.689832   -3.043383   -0.031394
O       1.092486   -0.811774    0.072604
H       0.824651    1.848012   -0.723790
H      -0.805731    1.962224   -0.039528
H       0.595941    1.784081    1.028431
H      -2.975903   -1.084356   -0.458109
H      -1.275566   -3.053973   -0.255448
H       1.376632   -3.952501    0.279628
H       2.501785   -2.745745    0.494906
