20

C      -0.137059    1.310348   -0.038200
O      -0.010949   -0.091931   -0.004494
C       0.659512   -0.610832   -1.134741
C       0.685539   -2.103733   -1.029101
C       1.260813   -3.005045    0.092927
C       0.533599   -3.936860   -0.903422
N      -0.602949   -2.929206   -1.038587
C       1.215372   -3.150630   -2.064812
O       0.647963   -3.181853   -3.329735
H       0.845310    1.808314   -0.060238
H      -0.711393    1.647461   -0.915333
H      -0.665959    1.613081    0.868713
H       0.144036   -0.319512   -2.064999
H       1.691178   -0.222790   -1.192924
H       2.349905   -3.086889    0.180709
H       0.782876   -2.892399    1.068181
H       0.338835   -5.007211   -0.827005
H      -1.081973   -2.814769   -0.141903
H       2.298424   -3.245759   -2.159064
H      -0.306494   -3.115033   -3.168631
