19

C      -0.114678    1.413857    0.122323
N      -0.076121   -0.033353    0.071996
C      -0.085047   -0.790471   -1.059824
C       0.028032   -2.118908   -0.710679
C       0.107184   -2.172165    0.707533
N       0.302099   -3.342750    1.466096
C       0.045889   -0.868078    1.179987
C       0.073159   -0.341515    2.569068
O      -1.141086    0.315418    2.968626
H       0.885026    1.842331    0.267783
H      -0.518436    1.794203   -0.818403
H      -0.756248    1.735034    0.945780
H      -0.179131   -0.326829   -2.029662
H       0.045275   -2.958357   -1.389180
H      -0.126985   -4.150290    1.032672
H      -0.040988   -3.263558    2.414792
H       0.316253   -1.165387    3.256875
H       0.851633    0.418000    2.710453
H      -1.865866   -0.250743    2.681196
