21

C      -0.667099    1.308611   -0.025944
C      -0.035254   -0.071915   -0.109024
C       1.197401   -0.246563   -1.037325
O       2.065600    0.906040   -1.070348
C       2.961898    0.321122   -0.094902
C       2.022855   -0.875056    0.124772
C       0.840867   -0.587124    1.061270
C       0.920885   -0.053068    2.462886
C       0.383926   -1.441892    2.205685
H      -1.210259    1.546151   -0.947085
H      -1.381048    1.368596    0.802909
H       0.099423    2.073824    0.118704
H      -0.793167   -0.822782   -0.367013
H       1.051810   -0.682231   -2.029648
H       3.926486    0.064276   -0.552418
H       3.132594    0.980479    0.764489
H       2.445378   -1.879700    0.120363
H       1.900568    0.040718    2.921301
H       0.218834    0.720469    2.756964
H      -0.682882   -1.608214    2.322859
H       0.999792   -2.289379    2.490845
