21

C       0.089805    1.530720   -0.025524
C       0.034557    0.002019    0.017297
C      -1.406224   -0.524416    0.007907
N      -1.491849   -1.974391    0.041554
C      -1.746207   -2.803203   -1.009973
N      -1.707786   -4.071367   -0.671385
C      -1.408051   -4.082895    0.675258
C      -1.282268   -5.360535    1.440271
C      -1.269546   -2.795302    1.130019
H       1.123762    1.886594   -0.016099
H      -0.387954    1.922008   -0.930587
H      -0.421980    1.972893    0.836464
H       0.569474   -0.422782   -0.839939
H       0.543630   -0.368456    0.914522
H      -1.961296   -0.119702    0.862342
H      -1.923611   -0.186075   -0.896008
H      -1.959005   -2.415359   -1.996249
H      -1.036477   -5.169734    2.488697
H      -2.214878   -5.934327    1.407301
H      -0.498879   -5.998250    1.016415
H      -1.046951   -2.392058    2.104820
