19

C      -0.060956    1.516502    0.068376
C       1.320934    2.224779    0.059333
C       2.251349    1.580995    1.070390
C       2.227629    0.257919    1.090139
C       2.591551   -0.951417    1.901839
O       1.319564   -1.463034    2.381486
C       1.715601   -1.793333    1.052622
C       1.395758   -0.585882    0.133535
C      -0.016730   -0.034489   -0.116271
H      -0.528120    1.740768    1.032696
H      -0.701262    1.962885   -0.699545
H       1.757897    2.182740   -0.948828
H       1.181544    3.286812    0.284380
H       2.835368    2.188724    1.754804
H       3.467198   -1.195159    2.490223
H       1.787884   -2.845021    0.799735
H       1.942340   -0.703097   -0.811677
H      -0.715784   -0.494392    0.588172
H      -0.353367   -0.305723   -1.121888
