19

C       0.629945    1.456624   -0.024582
O       0.742413    0.056751   -0.006369
C      -0.011201   -0.565904   -1.025962
C       0.169594   -2.048582   -0.945036
C       0.979349   -2.717924   -0.061507
N       0.866154   -4.065362   -0.327627
C      -0.000385   -4.264851   -1.371529
N      -0.302292   -5.584004   -1.775173
C      -0.449286   -3.028890   -1.781777
H       0.990053    1.885585   -0.974020
H      -0.411072    1.787173    0.123891
H       1.242473    1.846650    0.792297
H      -1.079194   -0.298342   -0.924548
H       0.306383   -0.184632   -2.014281
H       1.617976   -2.343790    0.719470
H       1.262617   -4.811620    0.216388
H      -1.177847   -5.605928   -2.283660
H       0.412293   -5.971937   -2.385377
H      -1.128614   -2.846505   -2.601663
