20

O       0.874656    0.807375   -0.689748
C       0.295640   -0.205415    0.091543
C      -0.006730    0.031220    1.594355
C      -1.252876   -0.881977    1.420274
O      -2.436260   -0.626984    2.128494
C      -1.200582   -0.619574   -0.123082
C      -2.096550    0.520250   -0.542037
C      -2.840820    0.503528   -1.823026
N      -3.565106    0.323425   -0.552329
H       0.406651    1.631373   -0.522749
H       0.942185   -1.076834   -0.041566
H       0.749346   -0.244697    2.331930
H      -0.311545    1.069137    1.774731
H      -0.993441   -1.921946    1.638530
H      -2.843547    0.171687    1.773869
H      -1.380965   -1.487308   -0.765695
H      -1.829410    1.500530   -0.146795
H      -3.055340    1.432217   -2.343745
H      -2.705652   -0.358496   -2.470926
H      -3.766832   -0.663836   -0.408617
