19

C      -0.111904    1.641871    0.020017
C      -0.061180    0.130251   -0.001588
C      -1.311373   -0.549436   -0.515426
O      -1.510768   -0.154163   -1.864700
C       1.248197   -0.561221   -0.278375
O       2.402622    0.180233   -0.491791
C       0.654158   -0.630480    1.129386
C       1.343828    0.067541    2.169115
C       1.992065    0.646444    3.003779
H       0.874212    2.068404    0.205181
H      -0.465695    2.001376   -0.949530
H      -0.797570    2.001993    0.794712
H      -1.200089   -1.643607   -0.437546
H      -2.168712   -0.262076    0.114660
H      -2.380337   -0.456690   -2.142102
H       1.218743   -1.479028   -0.862177
H       2.841321    0.310390    0.359208
H       0.216028   -1.579524    1.426285
H       2.522658    1.163243    3.764802
