23

C      -0.381713    1.548971    0.032493
C       1.091604    1.262339    0.095494
C       0.093421    0.109276    0.016795
C      -0.148456   -0.680338    1.295252
C       0.804356   -1.853012    1.562728
C       0.581800   -3.066634    0.653512
C       1.049742   -2.894602   -0.797702
C       0.384082   -1.828066   -1.632220
C       0.009663   -0.590421   -1.297741
H      -0.874603    1.909286    0.929205
H      -0.782390    1.960300   -0.888385
H       1.693819    1.471991   -0.781315
H       1.608130    1.415225    1.037825
H      -0.087215    0.019779    2.137364
H      -1.179997   -1.059160    1.287432
H       1.845592   -1.511916    1.480583
H       0.667143   -2.170035    2.603759
H       1.115181   -3.927537    1.074826
H      -0.484248   -3.330017    0.661784
H       2.135100   -2.704212   -0.793370
H       0.930796   -3.855316   -1.312450
H       0.247954   -2.099932   -2.677697
H      -0.387545    0.026834   -2.103121
