15

O      -0.096114    0.033962    0.177302
C      -0.022200    1.221192    0.034764
N      -0.983729    2.219627   -0.043774
C      -0.039970    3.324882   -0.078198
C       0.422146    3.827020    1.345306
C       1.596487    2.785371    1.307428
C       1.110246    2.269034   -0.076831
C       0.833966    5.217896    1.398349
N       1.163838    6.326288    1.408788
H      -1.962480    2.198039    0.210609
H      -0.199610    4.075844   -0.850366
H      -0.326848    3.641220    2.118612
H       2.571635    3.269965    1.257801
H       1.604682    2.053131    2.115837
H       1.835321    2.152171   -0.878408
