19

O       0.093773   -0.077387    0.177561
C       0.066590    1.122747    0.080798
C       1.283626    2.016355   -0.025547
C       1.099714    3.045966   -1.183996
C       0.854313    4.357464   -0.476543
C       1.020266    4.255860    0.840941
C       1.400066    2.881278    1.256327
C       1.075529    2.334867    2.634109
C       2.499688    2.652549    2.274416
H      -0.900884    1.678807    0.080016
H       2.155584    1.374049   -0.165612
H       1.991024    3.089563   -1.822016
H       0.268922    2.768673   -1.846883
H       0.599678    5.266143   -1.009499
H       0.924143    5.065079    1.556962
H       0.557423    2.988379    3.328175
H       0.792444    1.290173    2.709564
H       3.179902    1.825036    2.101141
H       2.963510    3.527095    2.718846
