19

C      -0.652977    2.440373    1.306976
C      -0.633051    1.355870    0.220511
C       0.414502    0.273438    0.513580
C      -2.014891    0.741841    0.086613
N      -3.011516    1.452615   -0.699574
C      -2.561705    0.124412   -1.173469
C      -1.797914    0.116855   -2.451387
O      -1.667225   -0.861789   -3.144346
H       0.325614    2.922038    1.397469
H      -1.393303    3.211417    1.074013
H      -0.903632    2.012175    2.285264
H      -0.385299    1.838629   -0.731390
H       0.194819   -0.242229    1.456097
H       0.445441   -0.480465   -0.279440
H       1.413048    0.712229    0.603020
H      -2.359682    0.246480    0.996738
H      -3.938656    1.379825   -0.290631
H      -3.213440   -0.737190   -1.049380
H      -1.357045    1.098377   -2.729277
