18

C       0.136050    1.534748    0.002507
C       0.043157    0.038334    0.001564
C      -0.946382   -0.748748    0.824662
C       0.521266   -0.978410    1.035292
O       1.045945   -1.866178    0.039077
C       0.697990   -0.910177   -1.004927
C       1.246290   -0.755289    2.312825
N       2.382672   -1.491024    2.425876
O       0.841970    0.034869    3.149712
H       1.122674    1.872155   -0.333139
H      -0.616524    1.982826   -0.656653
H      -0.023599    1.920278    1.013485
H      -1.425875   -0.184956    1.617281
H      -1.531578   -1.552429    0.385694
H       0.061764   -1.359725   -1.775931
H       1.604029   -0.497148   -1.463097
H       2.673252   -2.088196    1.669978
H       2.955263   -1.386101    3.246102
