17

C       0.056392    1.470056   -0.008133
N       0.075421    0.011234   -0.000680
C       0.059807   -0.657629   -1.228016
C       0.001775   -1.985936   -1.367223
C       0.054409   -2.846499   -0.171307
N       1.287627   -2.731229    0.643589
C       0.028767   -2.145922    1.152442
C      -0.038991   -0.649285    1.213664
O      -0.212609   -0.063634    2.266989
H       0.947740    1.860134   -0.509560
H      -0.834205    1.845571   -0.524015
H       0.039439    1.808346    1.026103
H       0.078382    0.007317   -2.083867
H      -0.041180   -2.424754   -2.355593
H      -0.413374   -3.825421   -0.231535
H       1.448628   -3.605743    1.138470
H      -0.447747   -2.611460    2.008874
