22

C       0.023383    1.606261   -0.045287
C      -0.007911    0.078002    0.036856
C      -1.434781   -0.524575    0.070775
O      -2.170871   -0.025305    1.187878
C      -2.164008   -0.045654   -1.125836
N      -2.688360    0.307421   -2.092626
C      -1.431710   -2.088841    0.045980
C      -0.676234   -2.682875    1.244324
C      -2.861437   -2.644638   -0.011514
H       1.053221    1.969083    0.015039
H      -0.407202    1.961940   -0.985264
H      -0.546631    2.052239    0.774081
H       0.536606   -0.362704   -0.805848
H       0.507502   -0.251739    0.946361
H      -1.627181   -0.160163    1.971556
H      -0.904245   -2.379667   -0.871570
H      -0.726315   -3.774682    1.203800
H       0.380737   -2.405973    1.263644
H      -1.132251   -2.379904    2.194242
H      -3.394049   -2.297810   -0.900628
H      -2.841580   -3.738127   -0.034227
H      -3.430313   -2.328679    0.867600
