22

C       0.512714    1.706326    0.160860
C      -0.061466    0.295857    0.048722
N       0.489907   -0.369853   -1.129849
C       1.664018   -1.215202   -0.947693
C       0.347061   -1.812271   -1.312016
C      -0.401660   -2.724415   -0.354696
C      -1.880954   -2.801118   -0.659927
C      -2.891001   -3.002358    0.385734
O      -2.700488   -1.718011   -0.211660
H       1.599992    1.679152    0.290043
H       0.296367    2.280765   -0.744183
H       0.082863    2.231030    1.019886
H       0.143786   -0.254822    0.982711
H      -1.149170    0.329213   -0.063989
H       2.458831   -1.115529   -1.683065
H       2.011779   -1.382602    0.072889
H       0.194343   -2.083841   -2.357897
H       0.018340   -3.736076   -0.443576
H      -0.261330   -2.414179    0.684649
H      -2.126186   -3.141691   -1.668334
H      -3.833449   -3.493695    0.147989
H      -2.575811   -3.085075    1.425471
