17

O      -0.006316   -0.043830   -0.206301
C      -0.030180    1.149465   -0.045132
C      -1.298302    1.966208    0.154275
C      -1.772957    2.570353   -1.188783
O      -0.722476    2.905910   -2.078659
C       0.287963    3.759730   -1.568849
C       1.523543    2.954199   -1.131860
C       1.275989    1.977115    0.002730
O       2.032607    1.825172    0.931538
H      -2.078987    1.316618    0.558451
H      -1.098143    2.758775    0.884845
H      -2.366026    1.827779   -1.728071
H      -2.412257    3.444218   -0.993546
H       0.578218    4.432803   -2.382073
H      -0.091638    4.384783   -0.748369
H       1.853060    2.366125   -1.999209
H       2.345918    3.613757   -0.839022
