16

C       0.102924    1.555470   -0.218526
O       1.553464    1.386841    0.053251
C       1.156779    0.288275    0.941501
C       1.221535   -1.278111    1.163706
C      -0.400415   -1.098773    1.156277
C      -0.077246    0.057855    0.157839
O       0.224602   -0.606608   -1.116411
C       1.122288   -1.604457   -1.055318
N       1.668683   -2.026881    0.008436
H      -0.344975    2.268030    0.481511
H      -0.087307    1.825382   -1.258379
H       0.925694    0.727097    1.919740
H       1.691363   -1.647044    2.074895
H      -0.970163   -1.947605    0.775988
H      -0.785209   -0.761249    2.117391
H       1.333710   -2.025205   -2.034831
