17

N       0.098297    1.389476   -0.057188
C       0.054172    0.002647   -0.054363
C      -1.149871   -0.708651   -0.041291
C      -1.122065   -2.095317    0.013030
C       0.108318   -2.743628    0.044722
N       1.268714   -2.082632    0.032114
C       1.252064   -0.750126   -0.004432
C       2.590063   -0.049022    0.028642
O       2.763443    0.893391   -1.040288
H       0.919999    1.769976   -0.510598
H      -0.758092    1.846647   -0.332918
H      -2.094072   -0.171920   -0.072826
H      -2.044218   -2.666428    0.022894
H       0.168539   -3.827797    0.079395
H       2.686726    0.550238    0.941623
H       3.378814   -0.809238    0.027355
H       2.698168    0.401527   -1.866189
