20

C      -0.795009    1.164021   -0.001234
C       0.070646   -0.090164   -0.019958
C       1.192035   -0.040173   -1.065324
O       1.160630    0.506445   -2.146122
N       2.245960   -0.746705   -0.548338
C       1.971397   -1.368417    0.733093
C       0.788692   -0.514245    1.282158
C       1.311167    0.665332    2.105642
O      -0.117323   -1.296917    2.047780
H      -0.218258    2.053915    0.266080
H      -1.207210    1.331915   -0.999160
H      -1.620252    1.057350    0.708345
H      -0.558023   -0.948090   -0.298543
H       3.045843   -0.965270   -1.121312
H       1.642235   -2.412017    0.635748
H       2.848847   -1.340584    1.388570
H       2.001228    1.282977    1.522965
H       0.487890    1.294050    2.452106
H       1.856708    0.299250    2.984272
H       0.250842   -1.410916    2.930421
