18

C      -0.176374    1.508492    0.013766
C       0.037847    0.000426   -0.034153
O       0.808964   -0.281153   -1.191147
C       0.744631   -0.498806    1.221295
C      -0.029211   -1.174822    2.323145
C       0.870610   -1.993871    1.411776
O       0.300022   -2.769767    0.394668
C       2.095510   -2.534075    1.960146
N       3.061419   -2.991051    2.403206
H       0.786543    2.026474    0.061329
H      -0.696934    1.839233   -0.888358
H      -0.770279    1.790337    0.887987
H      -0.939292   -0.500105   -0.099855
H       0.862077   -1.241160   -1.264672
H       1.617101    0.079232    1.510227
H       0.274744   -1.036383    3.353989
H      -1.093514   -1.318814    2.166687
H      -0.001782   -3.605963    0.767560
