15

C      -0.000026    1.542807    0.066165
C       0.040996    0.046079   -0.138948
C       0.673242   -0.669010   -1.260661
C       1.956607   -0.028130   -1.767284
O       1.834046    1.165004   -2.497407
C       2.388053   -0.005475   -0.280500
O       3.326119    0.406635    0.328214
N       1.255388   -0.785610    0.174974
H       0.814633    2.057994   -0.443295
H      -0.942553    1.933677   -0.330612
H       0.040562    1.777303    1.134489
H      -0.833962   -0.466742    0.255550
H       0.217242   -1.538915   -1.718092
H       2.565431   -0.775928   -2.298284
H       2.721264    1.503204   -2.663228
