18

C       0.027513    1.527231    0.025388
C       0.006338   -0.002090    0.017811
O      -1.326693   -0.495248   -0.076362
C       0.808824   -0.633473   -1.104080
C       2.262238   -0.813780   -0.703409
C       1.308348   -1.976684   -0.655788
N       1.276855   -1.983477    0.861744
C       2.205404   -0.807031    0.836618
C       0.776862   -0.615622    1.180595
H       1.052243    1.909102    0.020159
H      -0.497755    1.914274   -0.852468
H      -0.472912    1.920129    0.918755
H      -1.831912   -0.128481    0.656763
H       0.547612   -0.470822   -2.141733
H       3.113815   -0.614751   -1.337664
H       1.248569   -2.905328   -1.205676
H       3.044001   -0.725390    1.518235
H       0.451221   -0.470683    2.205949
