22

C      -0.317916    1.451968   -0.083101
C       0.187950    0.007338    0.034800
C       0.892881   -0.487012   -1.198891
C       2.006953    0.189904   -1.987466
N       1.714609   -0.726972   -3.157094
C       2.138037   -2.063000   -2.585503
C       0.982974   -1.988616   -1.598198
C       0.379520   -3.110187   -0.805881
C       0.332894   -0.980350   -2.510341
H       0.506693    2.154279   -0.241471
H      -1.010868    1.558506   -0.924083
H      -0.841681    1.756766    0.828015
H       0.867898   -0.070796    0.894556
H      -0.659282   -0.649976    0.263655
H       1.759749    1.218330   -2.265580
H       3.040784    0.148693   -1.622082
H       1.988490   -2.844963   -3.336920
H       3.172994   -2.098004   -2.222715
H       1.041551   -3.424660    0.009813
H      -0.580460   -2.830484   -0.361364
H       0.201846   -3.983734   -1.443627
H      -0.623563   -0.910772   -3.010838
