16

O      -0.084668    1.316103    0.129800
C       0.047983   -0.060464    0.014310
C       0.908398   -0.882551   -0.932402
C       0.022880   -2.074029   -0.453096
C       0.382126   -2.271798    1.054517
C      -0.279606   -0.924374    1.248830
O      -0.584530   -0.330714    2.452395
C      -1.100814   -1.041802   -0.026354
H       0.750036    1.668632    0.462799
H       0.712681   -0.627420   -1.978192
H       1.989131   -0.951603   -0.756746
H      -0.139896   -2.932789   -1.097768
H      -0.200939   -3.080273    1.504909
H       1.441447   -2.385651    1.314531
H      -0.675580    0.616763    2.279388
H      -2.147598   -0.934570   -0.269138
