21

C       0.026041    1.510482    0.043132
C      -0.008712   -0.007709   -0.023784
C       0.738967   -0.603524   -1.260901
C       1.605701   -1.743385   -0.664895
C       0.999905   -1.873383    0.749422
O       0.731740   -0.517333    1.099264
C      -0.293065   -2.659769    0.712685
C      -1.428671   -2.037081    0.403227
C      -1.447203   -0.562563    0.082320
H       1.058404    1.869325    0.000245
H      -0.529012    1.945761   -0.794192
H      -0.423056    1.865460    0.975518
H       0.036450   -0.972522   -2.011991
H       1.360023    0.157226   -1.740309
H       1.551862   -2.669674   -1.241880
H       2.655323   -1.444214   -0.592485
H       1.696974   -2.275118    1.489560
H      -0.258918   -3.725642    0.918663
H      -2.374642   -2.572121    0.381180
H      -2.002260   -0.016622    0.858365
H      -1.985624   -0.383168   -0.858034
