13

C       0.008165    1.436386   -0.075946
C       1.487443    1.932322    0.074951
C       2.230105    0.637928   -0.051822
N       3.428366    0.182268   -0.217682
O       3.287368   -1.190927   -0.215173
N       1.943954   -1.582594   -0.041431
C       1.322058   -0.447262    0.060045
N       0.036853   -0.007291    0.278232
H      -0.676422    1.974781    0.583270
H      -0.328244    1.580108   -1.111302
H       1.747649    2.678507   -0.677701
H       1.652160    2.378669    1.061305
H      -0.734664   -0.578262   -0.033195
