22

C      -0.144295    1.520748   -0.281108
C      -0.016188    0.022204   -0.110245
C       1.250924   -0.637849   -0.514270
N       0.897879   -0.516551    0.914811
C      -1.306002   -0.776548   -0.205255
C      -2.371514   -0.443492    0.877953
C      -3.547686    0.143886    0.074641
C      -3.326281   -0.484465   -1.303505
O      -1.917018   -0.508027   -1.471961
H       0.837374    2.003925   -0.245580
H      -0.609158    1.753147   -1.242739
H      -0.763754    1.963361    0.507693
H       1.238904   -1.652522   -0.903124
H       2.047998   -0.013086   -0.908896
H       1.427840    0.243198    1.335147
H      -1.042369   -1.841203   -0.143030
H      -2.672568   -1.357624    1.396239
H      -1.987097    0.242379    1.635601
H      -4.524215   -0.095040    0.503306
H      -3.466559    1.233088    0.001907
H      -3.741792   -1.505717   -1.338437
H      -3.754275    0.086873   -2.132052
