18

O      -0.165885    0.408031    0.856138
C       0.370601    0.813625   -0.143042
C       1.316913    1.970460   -0.150211
O       2.207681    2.047471   -1.269490
C       1.218406    3.061644   -1.151383
C       0.157928    3.148873   -2.223743
N       0.648729    3.977767   -3.316281
C       1.406015    3.283247   -4.356514
C       0.022645    3.767115   -4.617633
H       0.212148    0.343105   -1.137139
H       1.748235    2.204364    0.822263
H       1.612596    4.031085   -0.843695
H      -0.131025    2.137188   -2.554110
H      -0.734822    3.629518   -1.804124
H       2.262172    3.821504   -4.751465
H       1.551862    2.210795   -4.246600
H      -0.762705    3.016406   -4.690538
H      -0.148817    4.662786   -5.207259
