13

O       0.043666    0.067464   -0.606112
C       0.016224    1.177355   -0.167720
C      -1.115995    2.126505    0.293325
C      -0.050991    3.222487    0.572281
C       0.604347    3.123260    1.957462
O       1.546289    2.120884    1.497544
C       1.093287    2.250513    0.130754
H      -1.791335    2.363643   -0.535253
H      -1.717799    1.787395    1.141491
H      -0.214471    4.206081    0.138737
H       1.129524    4.029252    2.283193
H      -0.026988    2.757167    2.775721
H       1.901589    2.441507   -0.579936
