18

C       0.667602    1.521725    0.157649
C       0.054855    0.121031    0.004089
C       0.565357   -0.698846   -1.231611
O       1.274366    0.045634   -2.199698
C       1.419179   -1.822452   -0.648131
N       2.516257   -1.245864    0.141615
C       1.322884   -1.825291    0.834315
C       0.346718   -0.753707    1.234227
O      -0.168131   -0.645064    2.318131
H       1.748816    1.468369    0.309906
H       0.471821    2.120612   -0.734637
H       0.227233    2.021251    1.024483
H      -1.032976    0.230559   -0.050959
H      -0.290403   -1.127104   -1.762040
H       2.122685    0.271839   -1.797934
H       1.589572   -2.730996   -1.215724
H       3.276371   -1.917672    0.219952
H       1.440848   -2.709384    1.449527
