16

N      -0.056571    1.285519   -0.047837
C      -0.017275    0.026917    0.008069
O       1.133381   -0.718984    0.056194
C       0.835144   -2.127466    0.027143
C      -0.007929   -2.453507    1.257734
O      -1.201994   -1.667718    1.207829
C      -1.233297   -0.873264    0.018018
C      -1.136012   -1.808612   -1.190285
O       0.150866   -2.454490   -1.148158
H       0.888924    1.675081   -0.055411
H       1.793198   -2.646187    0.009447
H      -0.264092   -3.519972    1.259155
H       0.547402   -2.216864    2.172987
H      -2.151630   -0.289702    0.031795
H      -1.928223   -2.564646   -1.139412
H      -1.216895   -1.260247   -2.134706
