14

N      -0.077178    1.293678   -0.150311
C       0.040606   -0.024937    0.190924
O       1.070572   -0.529643    0.570413
C      -1.288378   -0.791228    0.132394
O      -1.006683   -2.153402   -0.061791
C      -2.156455   -2.954869    0.037718
C      -1.793018   -4.355269   -0.197389
N      -1.550865   -5.468748   -0.380825
H       0.765683    1.845780   -0.159285
H      -0.876113    1.646757   -0.648189
H      -1.816174   -0.624681    1.087128
H      -1.936984   -0.401730   -0.670578
H      -2.621251   -2.873670    1.034243
H      -2.922192   -2.666602   -0.701790
