18

N       0.275546    1.307096   -0.400115
C      -0.136670    0.150103   -0.109902
C      -1.556192   -0.297811   -0.314140
C      -1.687487   -1.456853   -1.322123
C      -0.871020   -2.725091   -0.980494
C       0.613809   -2.588580   -1.278517
O       1.170974   -3.219237   -2.144829
C       1.430736   -1.608223   -0.426461
O       0.657094   -0.829611    0.475331
H       1.266732    1.402219   -0.164929
H      -1.945509   -0.626705    0.657770
H      -2.146641    0.558128   -0.646333
H      -2.743532   -1.739722   -1.373713
H      -1.413548   -1.105729   -2.323980
H      -1.001001   -2.965232    0.082240
H      -1.228449   -3.569418   -1.574675
H       2.125883   -2.192907    0.184125
H       2.027831   -0.977337   -1.097804
