22

C      -0.248128    1.528543    0.225304
C      -0.005409    0.056805   -0.023425
C       0.602470   -0.559644   -1.236001
C       1.412238    0.243931   -2.247149
O       0.785076    1.492393   -2.531316
C       2.805051    0.366588   -1.561460
C       3.640768    1.571156   -1.986982
C       2.486471    0.285038   -0.053887
N       1.311808   -0.606727    0.074052
H       0.438663    2.180007   -0.309945
H      -1.259120    1.786162   -0.106410
H      -0.187603    1.738944    1.299751
H      -0.770497   -0.561054    0.448424
H       0.205493   -1.509545   -1.585801
H       1.501333   -0.329623   -3.180442
H       1.291142    1.922065   -3.228307
H       3.346715   -0.551510   -1.823322
H       3.122071    2.508257   -1.762541
H       4.600460    1.587295   -1.461008
H       3.861915    1.550737   -3.061160
H       3.316252   -0.150779    0.510874
H       2.298859    1.280373    0.366376
