10

N       0.063771   -1.117464    0.012439
C       0.002460    0.036660    0.019517
C      -0.027877    1.482421    0.033090
C       0.532902    2.169831    1.255081
N       1.259489    2.218134   -0.001157
C      -1.116443    2.088974   -0.704178
N      -1.996816    2.577419   -1.269602
H       0.073780    3.104755    1.559051
H       0.876232    1.522690    2.056652
H       2.028738    1.551770   -0.017173
