17

C       0.070422    1.341884   -0.101025
O       0.005922   -0.067230   -0.021690
C      -1.302556   -0.618167    0.015185
C      -1.916503   -0.743109   -1.378266
C      -1.105194   -2.002763    0.671666
O      -0.117760   -2.749275   -0.000336
C      -0.777459   -1.840159    2.107470
N      -0.529122   -1.710421    3.228226
H       1.127397    1.614110   -0.067154
H      -0.361670    1.725358   -1.035495
H      -0.446259    1.813284    0.746932
H      -1.948246   -0.009164    0.665462
H      -1.324109   -1.428340   -1.989227
H      -2.940269   -1.125151   -1.314064
H      -1.954981    0.229569   -1.875296
H      -2.036288   -2.575029    0.603194
H       0.641059   -2.156847   -0.095203
