14

N      -0.082005    1.394125   -0.365258
C       0.082310    0.094572    0.089597
O       1.098889   -0.299639    0.604754
C      -1.202230   -0.755260   -0.005316
O      -0.912497   -2.087911   -0.250439
C      -1.983306   -0.645591    1.330940
N      -2.304409    0.602872    1.744610
O      -2.295375   -1.667737    1.913096
H       0.768406    1.939685   -0.400128
H      -0.726916    1.558931   -1.123822
H      -1.850857   -0.344238   -0.798040
H      -1.279996   -2.567000    0.513869
H      -1.839728    1.400895    1.339361
H      -2.721260    0.700862    2.656941
