23

C       0.387769    1.475360   -0.055573
C       0.052544   -0.010467   -0.226733
C      -1.396633   -0.388790    0.139202
C      -2.398596    0.103185   -0.920220
O      -3.732585    0.079649   -0.448638
C      -4.458119   -1.124622   -0.595692
C      -3.646690   -2.416686   -0.439239
O      -2.773771   -2.402024    0.669292
C      -1.481350   -1.904650    0.372943
H       1.435606    1.669529   -0.305040
H      -0.223988    2.115019   -0.699132
H       0.226263    1.797059    0.978859
H       0.256887   -0.318763   -1.261653
H       0.738053   -0.598265    0.397338
H      -1.671960    0.111676    1.076819
H      -2.193688    1.151478   -1.158904
H      -2.283790   -0.464822   -1.857606
H      -5.235895   -1.084589    0.174376
H      -4.963496   -1.163899   -1.576986
H      -4.355279   -3.241580   -0.293884
H      -3.082952   -2.636365   -1.359046
H      -1.074958   -2.432130   -0.508993
H      -0.857035   -2.175703    1.230918
