16

C      -0.059328   -1.197746   -0.245093
C      -0.020994   -0.002697   -0.109345
C       0.007859    1.418800    0.071696
C       0.451221    2.301112   -1.079853
C       1.350845    2.149952    0.123223
N       1.508907    3.256406    1.012031
C       0.471296    3.737680    1.552353
O      -0.812200    3.315990    1.436359
C      -1.025858    1.947772    1.057405
H      -0.086053   -2.251785   -0.370550
H       0.737281    1.806277   -2.000106
H      -0.051132    3.254848   -1.201065
H       2.247008    1.552705    0.003689
H       0.526567    4.621390    2.183865
H      -2.036274    1.911932    0.642029
H      -1.000140    1.329737    1.962815
