22

C      -0.125183    1.039235   -1.410636
C      -0.285325    0.587144    0.044268
O       0.048665    1.643362    0.945139
C      -1.691809    0.066542    0.273338
C      -2.113978   -1.346090    0.230363
C      -1.086315   -2.283602    0.866551
C      -1.300677   -1.472151    2.175914
C      -0.161457   -0.888311    2.994194
N      -2.273472   -0.522634    1.504733
H       0.879086    1.440852   -1.567332
H      -0.282557    0.204703   -2.102094
H      -0.849023    1.825257   -1.655112
H       0.452366   -0.193928    0.245621
H      -0.736595    2.185904    1.074051
H      -2.435341    0.748777   -0.145092
H      -2.975456   -1.675547   -0.342864
H      -1.423648   -3.318658    0.943241
H      -0.087433   -2.281177    0.419681
H      -1.925967   -2.068302    2.848249
H       0.482554   -0.214746    2.429253
H      -0.569884   -0.316756    3.834697
H       0.448029   -1.699278    3.409064
