21

C       0.120849    1.525717   -0.066856
C       0.012055    0.004225    0.080906
C      -1.420926   -0.517151    0.033817
O      -2.210174   -0.053042    1.115578
C      -2.190153   -0.438522   -1.348299
C      -2.331651   -1.970244   -1.302267
C      -3.393191   -2.827826   -1.907650
O      -0.985974   -2.485864   -1.250265
C      -1.594876   -2.046690   -0.030987
H       1.166706    1.845462   -0.051188
H      -0.317104    1.871429   -1.009783
H      -0.383827    2.051322    0.752545
H       0.574739   -0.491711   -0.716038
H       0.456665   -0.306154    1.034666
H      -2.259650    0.906897    1.059797
H      -3.140723    0.086467   -1.227270
H      -1.647640   -0.049870   -2.214286
H      -3.330975   -2.811247   -3.001794
H      -3.281713   -3.863541   -1.575801
H      -4.387768   -2.471030   -1.621576
H      -1.649419   -2.743715    0.798475
