17

C      -0.708387    1.004712    0.291954
N       0.096046   -0.205167    0.145210
C       1.492771   -0.071290   -0.223921
C       1.100929   -0.636384    1.104863
C       1.548149    0.042133    2.366156
O       1.190883    1.388562    2.653863
C       0.691430    0.373621    3.530840
C      -0.733984    0.134562    3.541672
N      -1.869420   -0.073988    3.598379
H      -0.162146    1.866134    0.694286
H      -1.092991    1.261537   -0.700019
H      -1.560373    0.793988    0.942208
H       1.858439   -0.719531   -1.016645
H       1.924039    0.930448   -0.213121
H       1.140322   -1.720169    1.225549
H       2.581629   -0.202168    2.626960
H       1.140434    0.371137    4.522724
