18

C       0.024861    1.433715    0.124356
C       0.012837   -0.051730   -0.032158
C      -0.184235   -0.782878   -1.126910
C      -0.085427   -2.246947   -0.813510
C       1.072216   -2.978386   -1.502047
O       1.201650   -4.294876   -1.007409
O       0.141141   -2.298337    0.606846
C       0.237500   -0.979632    1.136082
H       0.987403    1.781635    0.519777
H      -0.154491    1.939565   -0.827445
H      -0.742319    1.763370    0.836165
H      -0.377457   -0.404946   -2.123505
H      -1.015141   -2.795637   -1.031838
H       0.885008   -3.053542   -2.579229
H       1.995905   -2.394327   -1.357113
H       1.203625   -4.209116   -0.045919
H       1.223399   -0.825891    1.604204
H      -0.517455   -0.841269    1.926746
