15

C      -0.024430    1.440541    0.030262
N      -0.009041   -0.005280    0.075846
N      -0.032807   -0.718334   -1.076755
N      -0.011769   -1.977506   -0.756832
C       0.026005   -2.093246    0.598845
C       0.027560   -0.833144    1.150315
C       0.060962   -0.361698    2.566462
O       0.077752   -1.505814    3.395725
H       0.876054    1.856532    0.492949
H      -0.056220    1.727843   -1.020577
H      -0.906081    1.838931    0.542084
H       0.048614   -3.046454    1.098613
H       0.950981    0.270567    2.730524
H      -0.817928    0.274322    2.771198
H       0.112807   -1.214038    4.311106
