21

C       0.113870    1.135581   -0.315124
O      -0.184922    0.040310    0.533115
C      -1.421320   -0.555544    0.279512
C      -1.510512   -1.702088   -0.727059
C      -0.331765   -2.108697   -1.582974
C      -1.508454   -1.969952    0.768323
O      -0.347705   -2.493431    1.364021
C      -2.736440   -2.492110    1.473392
O      -2.700828   -2.205461    2.857255
H       1.094009    1.514459   -0.017104
H       0.145657    0.834136   -1.369760
H      -0.629290    1.937070   -0.199777
H      -2.274616    0.112367    0.402883
H      -2.480966   -1.800212   -1.209639
H       0.613130   -1.936258   -1.064705
H      -0.382428   -3.174616   -1.827567
H      -0.313548   -1.550340   -2.524785
H       0.279024   -1.760235    1.432969
H      -3.635196   -2.019177    1.064307
H      -2.817825   -3.576759    1.290248
H      -1.817424   -2.466298    3.145800
