19

C      -0.224445    1.530771    0.052557
C       0.071548    0.025048   -0.031280
C       0.735866   -0.504319    1.217982
N       1.990060   -0.092465    1.455091
C       2.610974   -0.516590    2.549113
C       2.041170   -1.381233    3.496639
N       2.730500   -1.737663    4.656470
C       0.736144   -1.811463    3.244411
C       0.085676   -1.368831    2.100656
H       0.698148    2.084513    0.246488
H      -0.659802    1.898582   -0.881968
H      -0.926559    1.749905    0.863972
H      -0.855198   -0.529314   -0.216642
H       0.733599   -0.161229   -0.884949
H       3.629639   -0.158161    2.699048
H       3.735856   -1.671007    4.583407
H       2.452724   -2.621170    5.059274
H       0.239504   -2.483743    3.938534
H      -0.926989   -1.697718    1.890801
