17

C      -0.496312    1.401382   -0.109626
C      -0.188621   -0.060326   -0.073513
C       0.099843   -0.940539   -1.101135
N       0.326413   -2.120059   -0.469998
N       0.189995   -1.998677    0.871073
N      -0.121242   -0.757858    1.099743
N       0.274061   -0.775169   -2.474041
C      -0.518385   -1.588815   -3.403738
C      -0.786100   -0.133442   -3.250808
H      -0.485262    1.788799    0.911445
H       0.241969    1.957415   -0.696818
H      -1.483399    1.614939   -0.536149
H       0.602560   -3.002339   -0.869949
H       0.023967   -1.960463   -4.267152
H      -1.246833   -2.275149   -2.978544
H      -1.693871    0.150506   -2.726104
H      -0.443125    0.569313   -4.003194
