15

O       0.018896    1.356394    0.087886
C       0.045302   -0.005085    0.020780
C      -0.289247   -0.827424    1.212808
C      -1.178870   -1.017906   -0.014979
C      -2.565406   -0.702972   -0.015184
N      -3.694929   -0.446806   -0.021133
C      -0.441325   -1.776786   -1.091862
N      -0.213942   -0.845778   -2.222401
C       0.707592   -0.828572   -1.055267
H      -0.210263    1.689753   -0.789501
H       0.349094   -1.644613    1.536574
H      -0.758164   -0.269538    2.016750
H      -0.410636   -2.850469   -1.228561
H       0.244129   -1.372846   -2.967628
H       1.764670   -1.036433   -1.167198
