17

C       0.051109    1.492209   -0.148433
O       1.513327    1.444716    0.087984
C       1.327360    0.200980    0.806916
C       1.115391    0.260222    2.315091
O       0.150323   -0.799646    2.467075
C      -0.035744   -1.237504    1.148283
C       1.369582   -1.313857    0.384198
C       0.669385   -0.946284   -0.924956
C      -0.017953   -0.029956    0.122261
H      -0.438625    2.142945    0.583086
H      -0.177692    1.819245   -1.165952
H       2.010726    0.036320    2.905061
H       0.689987    1.211302    2.653903
H      -0.753626   -2.056534    1.103393
H       2.137489   -2.071509    0.564466
H       1.285460   -0.427801   -1.660565
H       0.046334   -1.712660   -1.393182
