16

C      -0.093092    1.526693    0.044912
C      -0.043423    0.033723   -0.005070
C       0.037988   -0.781277   -1.118448
N       0.044632   -0.540251   -2.500867
N       0.046043   -2.065686   -0.635578
C      -0.024939   -1.991875    0.736608
N      -0.087506   -0.732233    1.132708
C      -0.013609   -3.145994    1.549020
C      -0.007001   -4.151363    2.212580
H       0.229092    1.968323   -0.904158
H      -1.102509    1.897230    0.259696
H       0.564505    1.904191    0.833341
H      -0.222473    0.414476   -2.704320
H       0.949277   -0.713873   -2.929517
H       0.037163   -2.904726   -1.191598
H      -0.000680   -5.027106    2.812757
