19

C       0.022559    1.540682   -0.020862
C       0.078001    0.018133    0.013147
C       1.086966   -0.633598   -0.960694
O       2.346255   -0.014622   -0.562350
C       2.249215   -0.816184    0.621311
C       3.463597   -0.913569    1.488639
C       1.454292   -1.920478   -0.089606
O       0.510398   -2.057221    0.971325
C       0.766476   -0.643275    1.227862
H       1.023883    1.971104    0.044238
H      -0.437420    1.894754   -0.949551
H      -0.577104    1.923963    0.811470
H      -0.919108   -0.420269   -0.090236
H       0.914676   -0.630056   -2.035194
H       3.693833    0.056261    1.942108
H       3.288795   -1.636104    2.291206
H       4.331970   -1.235696    0.906838
H       1.819446   -2.841511   -0.540983
H       0.538113   -0.326258    2.244539
