15

C       0.204182    1.135949    0.495494
N      -0.012553   -0.010497   -0.393932
C      -1.265447   -0.664752   -0.252333
C      -1.352550   -1.978761    0.168818
O      -0.376211   -2.842061    0.489626
N      -2.657277   -2.305667    0.211967
N      -3.462655   -1.268523   -0.164320
C      -2.619066   -0.282360   -0.440897
H       1.204726    1.543759    0.320622
H      -0.528735    1.946795    0.365255
H       0.148296    0.799696    1.534771
H       0.150886    0.267794   -1.355629
H       0.446145   -2.346645    0.347247
H      -3.063984   -3.187983    0.469677
H      -3.008785    0.670995   -0.769909
