18

C      -0.031306    1.523541    0.021652
C       0.077455    0.020881    0.024799
C      -0.772642   -0.833141    0.940323
C       0.740062   -0.803129    1.096583
C       1.461996   -1.899478    0.378717
N       2.215542   -2.785224    1.081765
C       1.257994   -1.837431   -0.965993
C       0.448920   -0.667964   -1.295707
O       0.110783   -0.258829   -2.388937
H       0.933483    1.989890   -0.204083
H      -0.736601    1.836510   -0.753867
H      -0.379462    1.906523    0.985802
H      -1.357436   -0.310123    1.692049
H      -1.226495   -1.740397    0.555654
H       1.181638   -0.362684    1.984171
H       2.068953   -2.864797    2.074214
H       2.554221   -3.614856    0.622215
H       1.609307   -2.545177   -1.704614
