21

C      -0.242407    1.567195   -0.021767
C       0.002018    0.055286   -0.020543
C       0.861052   -0.454389   -1.226465
C       2.154953   -0.897333   -0.543306
O       2.725929    0.299933    0.057789
C       2.226728    0.175832    1.400537
C       2.730826   -1.224941    1.813878
C       1.706003   -1.651037    0.734788
C       0.807540   -0.451260    1.188136
H       0.705832    2.110829   -0.059563
H      -0.837107    1.867971   -0.890856
H      -0.785578    1.883715    0.875859
H      -0.969795   -0.452100   -0.023566
H       0.379683   -1.294109   -1.741289
H       1.055901    0.327195   -1.966126
H       2.898791   -1.381880   -1.179474
H       2.424141    1.090481    1.958287
H       3.791447   -1.431640    1.652713
H       2.420846   -1.523347    2.817763
H       1.334421   -2.668489    0.614707
H       0.250582   -0.599127    2.114274
