12

C      -0.015710    1.373287    0.012041
O       0.025143   -0.061228   -0.032799
C       0.629676   -0.580137   -1.093810
O       1.131227    0.052602   -1.994010
C       0.620954   -2.126055   -1.049968
N       1.244329   -2.629411   -2.140970
O       0.119287   -2.763945   -0.152457
H       0.997290    1.782945    0.024494
H      -0.546198    1.766777   -0.858462
H      -0.543823    1.623355    0.931109
H       1.624151   -1.998548   -2.827242
H       1.316784   -3.625887   -2.254634
