19

C      -0.141762    1.535200    0.066848
C       1.381596    1.273553    0.022889
C       1.237165    0.128447    1.048913
C       2.413721   -0.837740    0.749013
C       2.162163   -0.971994   -0.763236
O       2.948995   -0.432203   -1.878681
C       1.727997    0.174993   -2.415190
C       1.143140    0.102695   -0.997455
C      -0.007881   -0.005551    0.029383
H      -0.532278    1.978410    0.987630
H      -0.594567    2.001678   -0.812043
H       2.194122    2.001558   -0.015180
H       1.004967    0.370974    2.088163
H       3.366032   -0.355411    0.991860
H       2.371606   -1.796440    1.273128
H       1.834574   -1.986270   -1.031660
H       1.913715    1.162041   -2.848479
H       1.256951   -0.482210   -3.158148
H      -0.802060   -0.753652    0.060017
