18

C      -0.053121    1.533908   -0.064271
C      -0.005621    0.037477    0.047939
O       0.825986   -0.600199   -0.950714
C       1.591183   -1.325195    0.036958
C       0.712076   -0.824307    1.184522
O       1.386639   -0.350037    2.296745
C      -0.585673   -1.600495    1.354623
N      -1.585977   -0.570108    1.742284
C      -1.264895   -0.785290    0.307583
H       0.944879    1.963116    0.065021
H      -0.424668    1.829543   -1.051886
H      -0.717751    1.947593    0.698948
H       1.606658   -2.405015   -0.150533
H       2.619127   -0.949648    0.106485
H       0.713998   -0.030464    2.911496
H      -0.720959   -2.641950    1.623597
H      -2.463184   -1.051322    1.935076
H      -2.020319   -1.093615   -0.404449
