19

C      -0.053095    1.492993   -0.232414
C       1.351129    2.006418    0.061536
C       2.127150    1.672067    1.325306
C       1.588915    0.785528    2.441643
C       1.037524   -0.474401    1.755678
O      -0.355257   -0.336853    1.403768
C      -0.017860   -0.019685    0.036959
C       1.480182   -0.400149    0.259965
C       2.331475    0.849287    0.067787
H      -0.841592    1.959725    0.367086
H      -0.280702    1.686326   -1.287804
H       1.639884    2.941654   -0.408115
H       2.874005    2.409929    1.601684
H       2.419032    0.523138    3.108791
H       0.807341    1.249276    3.052417
H       1.208798   -1.393501    2.324183
H      -0.624701   -0.603531   -0.661715
H       1.844499   -1.313700   -0.205439
H       3.252537    0.835258   -0.501505
