15

O      -0.125334    1.339858    0.102046
N       0.020742   -0.043932   -0.066219
C      -1.100311   -0.628823   -0.090163
C      -2.549075   -0.269291    0.086235
N      -3.268365   -0.902260   -1.067189
C      -2.904139   -1.729217    0.101638
C      -1.436829   -2.104965   -0.112056
C      -0.812677   -3.255868   -0.757224
O      -0.759767   -3.065772    0.668858
H       0.789665    1.640898    0.121830
H      -2.970493    0.564949    0.627843
H      -4.251731   -0.648107   -0.959045
H      -3.631139   -2.257806    0.703273
H      -1.433312   -4.083510   -1.096256
H       0.135509   -3.126113   -1.274741
