21

C      -0.036102    1.558998   -0.056217
C       0.064917    0.043095   -0.011429
C       1.087891   -0.689500   -0.925299
C       1.379728   -1.673073    0.239421
C       0.745214   -0.637759    1.215920
O       1.709454    0.251810    1.746922
C      -0.174684   -1.161382    2.334843
C       0.588529   -1.829922    3.383031
C       1.283681   -2.350527    4.215901
H       0.937320    2.017330    0.132806
H      -0.391619    1.890419   -1.038127
H      -0.736601    1.938988    0.695667
H      -0.926587   -0.405794   -0.146944
H       0.713080   -1.111126   -1.860616
H       1.950530   -0.054811   -1.143620
H       0.789465   -2.591433    0.168505
H       2.421786   -1.934307    0.435914
H       2.178149   -0.222675    2.445230
H      -0.723624   -0.312815    2.762731
H      -0.918225   -1.847827    1.913265
H       1.865702   -2.827173    4.965479
