21

C      -0.076675    1.559779    0.082285
C       0.008955    0.022399    0.041407
C       0.691914   -0.493776    1.321885
C      -1.416939   -0.556245   -0.033097
C       0.765803   -0.456937   -1.221830
C       2.230025    0.018044   -1.343240
C       2.864364   -0.480501   -2.561666
N       3.351004   -0.883037   -3.529573
H       0.907354    2.025762    0.197515
H      -0.533465    1.957046   -0.830948
H      -0.688993    1.887230    0.929040
H       0.102803   -0.225853    2.205241
H       0.791142   -1.584834    1.307455
H       1.690378   -0.066020    1.459083
H      -1.939491   -0.207541   -0.930370
H      -1.399160   -1.651111   -0.059693
H      -2.007171   -0.252025    0.837587
H       0.756945   -1.552613   -1.248497
H       0.221317   -0.122192   -2.112210
H       2.287488    1.111562   -1.353921
H       2.824145   -0.321332   -0.488219
