18

C       0.010121    1.565604    0.082892
C      -0.024703    0.035555    0.087263
C      -1.427144   -0.550717   -0.027767
C      -1.458213   -2.071956   -0.090662
O      -2.150016   -0.108389    1.172341
C      -3.470467   -0.005968    1.080347
O      -4.163061   -0.238398    0.126035
C      -4.024192    0.459838    2.361332
N      -4.511181    0.822292    3.343677
H       1.038362    1.930226    0.156938
H      -0.421411    1.969594   -0.839440
H      -0.552884    1.974801    0.926055
H       0.558544   -0.355998   -0.754491
H       0.443194   -0.353742    0.999462
H      -1.954545   -0.127386   -0.887828
H      -0.984058   -2.505890    0.794693
H      -2.484903   -2.437895   -0.160675
H      -0.914414   -2.413688   -0.976256
