23

C       0.470379    1.042939    0.336739
C       0.185589   -0.420310   -0.035699
C      -1.283658   -0.818896    0.053649
C      -2.205756   -0.024579   -0.857621
C      -1.666091   -2.240212    0.356508
C      -0.684884   -3.373078    0.576135
N      -1.914220   -1.176749    1.336682
C      -1.181366   -1.147060    2.591919
H       1.543911    1.249656    0.285225
H      -0.031039    1.740906   -0.339645
H       0.135659    1.268817    1.354118
H       0.520845   -0.600491   -1.065667
H       0.800448   -1.068240    0.592778
H      -1.886968   -0.102600   -1.903972
H      -3.229243   -0.398030   -0.777470
H      -2.220382    1.036444   -0.588268
H      -2.590173   -2.591174   -0.107437
H       0.266663   -3.057982    1.006748
H      -1.116761   -4.126718    1.244422
H      -0.468637   -3.868669   -0.376674
H      -0.111981   -1.398501    2.539742
H      -1.266459   -0.145350    3.026426
H      -1.652343   -1.848722    3.289051
