18

C      -0.025030    1.546223   -0.100751
C       0.041632    0.028942    0.052440
N      -1.284673   -0.554293    0.147493
C      -2.091425   -0.351058    1.370346
C      -2.618009   -1.798121    1.226159
C      -1.393313   -2.017101    0.292399
C      -1.574719   -2.765652   -0.951268
N      -1.722553   -3.365086   -1.928321
H       0.980778    1.966859   -0.189048
H      -0.597964    1.817508   -0.991690
H      -0.504639    2.011375    0.766962
H       0.533687   -0.413106   -0.822164
H       0.658782   -0.232675    0.935196
H      -1.476215   -0.223319    2.276345
H      -2.815883    0.465735    1.314426
H      -2.659809   -2.417051    2.121154
H      -3.561868   -1.857091    0.684641
H      -0.548854   -2.461968    0.845596
