22

C      -1.768599    1.530474   -1.464458
C      -1.757157    0.000741   -1.405139
C      -1.655715   -0.538062    0.027260
C      -1.621193   -2.056164    0.116429
C      -2.138656   -2.733099    1.358396
C      -2.911098   -2.838954    0.065751
N      -0.491595   -2.686486   -0.525379
C       0.771872   -2.653448   -0.016569
O       1.087821   -2.161915    1.044951
H      -1.835629    1.889801   -2.496110
H      -2.620689    1.942818   -0.912475
H      -0.857345    1.949146   -1.023594
H      -2.665619   -0.394029   -1.879179
H      -0.913190   -0.379257   -1.994637
H      -0.753522   -0.146683    0.512216
H      -2.508561   -0.175283    0.614550
H      -1.606002   -3.609905    1.704572
H      -2.530634   -2.101475    2.147329
H      -3.833480   -2.277563   -0.036039
H      -2.908647   -3.795104   -0.446743
H      -0.608046   -3.042879   -1.461538
H       1.496392   -3.150202   -0.694906
