19

C      -0.811995    1.210606    0.091899
C       0.000634   -0.081440   -0.008873
C       0.772033   -0.333899   -1.343481
O       0.837045    0.795141   -2.207390
C       2.200217   -0.707539   -0.948198
C       2.986482    0.404286   -0.334831
C       2.341841   -0.644806    0.560289
C       1.023188   -0.241653    1.135088
O       0.762239   -0.113288    2.306077
H      -0.201934    2.085005   -0.147809
H      -1.672581    1.201288   -0.585909
H      -1.187528    1.317891    1.112741
H      -0.683430   -0.927495    0.143115
H       0.312549   -1.176489   -1.877245
H      -0.056815    0.998561   -2.501010
H       2.716171   -1.465497   -1.524573
H       4.067448    0.362770   -0.401387
H       2.572562    1.405152   -0.365048
H       2.981406   -1.301191    1.136804
