20

C       0.189355    1.341204   -0.206080
C       0.103837   -0.175064   -0.185730
O       0.438925   -0.847847    0.767120
N      -0.466991   -0.731311   -1.319163
C      -0.125378   -0.649075   -2.724760
C       1.314649   -0.335303   -3.102279
C       2.176166   -1.251363   -2.198108
C       1.288303   -2.476205   -1.867839
C      -0.139881   -1.967404   -1.981704
H       1.110629    1.651773   -0.712221
H      -0.653088    1.785825   -0.740991
H       0.224274    1.709050    0.819897
H      -0.928910   -0.352772   -3.394292
H       1.445710   -0.589720   -4.161188
H       1.571032    0.723937   -2.998082
H       3.111642   -1.539224   -2.683401
H       2.448661   -0.732277   -1.275908
H       1.427409   -3.276831   -2.603595
H       1.505123   -2.886087   -0.878778
H      -0.954732   -2.677986   -2.090384
