17

N       0.166028    1.439862    0.120218
C       0.034096    0.012440    0.040550
C       0.322420   -0.801952    1.327228
C      -0.848557   -1.752951    0.974823
O      -1.723735   -2.178315    1.978808
C      -1.401632   -0.655638   -0.008328
O      -2.308259    0.199183    0.660773
C      -1.913637   -1.086143   -1.305578
N      -2.293009   -1.443979   -2.338475
H       0.008235    1.870398   -0.785647
H      -0.535386    1.816269    0.751369
H       0.625860   -0.360449   -0.798817
H       1.316250   -1.236391    1.440301
H       0.094425   -0.207946    2.218187
H      -0.524366   -2.644502    0.434051
H      -1.907163   -1.417417    2.541590
H      -3.113603   -0.305985    0.828436
