15

O      -0.023449    0.014054    0.166004
C      -0.012206    1.209168    0.077638
N      -0.995011    2.172751    0.000039
C      -0.088677    3.328894    0.000117
C       1.056994    2.302118    0.037926
C       2.358222    2.303491    0.764630
C       2.347404    2.305217   -0.755069
C       2.765678    1.145111   -1.494699
N       3.128880    0.235551   -2.109239
H      -1.997794    2.108634    0.083298
H      -0.145000    3.943781   -0.903614
H      -0.167101    3.963121    0.889498
H       2.687943    3.213688    1.252926
H       2.639972    1.378915    1.256401
H       2.601057    3.244967   -1.236462
