16

O      -0.174434   -0.043276    0.141315
C      -0.037947    1.134695   -0.073237
C       1.252675    1.841615   -0.113849
C       1.356453    3.307633    0.294251
C       1.742905    2.925260   -1.091976
C       3.106080    2.201561   -1.071707
N       2.534404    1.153508   -0.161918
C       3.564229    1.680069   -2.349346
C       3.943855    1.280545   -3.416853
H      -0.912294    1.805875   -0.247026
H       0.413062    3.837397    0.387126
H       2.110593    3.586359    1.026188
H       1.249123    3.292571   -1.981105
H       3.901105    2.806479   -0.615843
H       3.009056    1.060961    0.732096
H       4.278792    0.911153   -4.354605
