17

C       0.178318    1.309082    0.007446
O       1.288561    0.395738   -0.008645
C      -0.013818   -0.138255    0.001528
C      -0.688436   -1.025659    1.061348
C      -1.833367   -1.181983    0.014124
C      -0.709660   -1.014187   -1.054104
O      -0.035800   -2.264226   -1.191147
C       0.695453   -2.579117   -0.018823
O      -0.012097   -2.277034    1.171283
H       0.050960    1.869270    0.932567
H       0.032483    1.879252   -0.908806
H      -0.885475   -0.656659    2.068260
H      -2.340944   -2.146087    0.013988
H      -2.544504   -0.352846    0.025755
H      -0.926821   -0.634314   -2.052800
H       0.874192   -3.656182   -0.026456
H       1.647367   -2.031542   -0.025405
