19

C       0.022835    1.533220    0.049950
C       0.066351    0.032900    0.000713
C      -0.928709   -0.827273    0.827093
C      -1.458755   -2.097947    0.250452
C      -0.443509   -2.827267   -0.230515
C       0.828824   -2.021508   -0.118478
C       0.560281   -0.982733    1.014723
C       0.695618   -0.786975   -1.118068
O       0.053465   -0.927586   -2.354998
H       1.011988    1.965447   -0.141001
H      -0.662985    1.930009   -0.707051
H      -0.315930    1.893453    1.027149
H      -1.505517   -0.263528    1.551944
H      -2.511117   -2.353926    0.228092
H      -0.517383   -3.770842   -0.756630
H       1.769043   -2.569061   -0.151324
H       1.107754   -0.841153    1.938906
H       1.695781   -0.400138   -1.331405
H      -0.799782   -1.343249   -2.178557
