14

C       0.009817    1.416323   -0.036750
O       0.003871   -0.019292   -0.005814
C       0.579605   -0.653597   -1.012261
C       0.725330   -1.990336   -1.249715
C       1.425087   -2.012349   -2.484389
C       1.854651   -3.227240   -3.224747
O       2.446341   -3.227568   -4.272262
N       1.681037   -0.804641   -2.953342
O       1.134592    0.063425   -2.001997
H       1.033947    1.799197   -0.039312
H      -0.518813    1.786662   -0.919272
H      -0.506958    1.726075    0.870724
H       0.388138   -2.811857   -0.642708
H       1.574012   -4.173376   -2.711412
