23

C       0.265368    1.514007    0.330706
C       0.076019    0.021343    0.025301
C      -1.418147   -0.355141   -0.060837
C      -2.206151   -0.162599    1.237425
O      -3.551931   -0.600248    1.125571
C       0.810313   -0.460894   -1.229510
O       0.776349   -1.864401   -1.377050
C       0.839446    0.332116   -2.512995
C       2.105578    0.129104   -1.700857
H       1.322209    1.780583    0.411061
H      -0.189300    2.146204   -0.440066
H      -0.201514    1.776583    1.283601
H       0.514113   -0.551752    0.855306
H      -1.905717    0.217015   -0.860539
H      -1.496709   -1.416411   -0.333970
H      -1.686959   -0.671645    2.066654
H      -2.272196    0.896867    1.501866
H      -3.537629   -1.543390    0.933627
H      -0.064807   -2.100420   -1.781036
H       0.744377   -0.225543   -3.438426
H       0.400505    1.323328   -2.535663
H       2.527969    0.984544   -1.188483
H       2.831686   -0.579879   -2.080409
