18

C      -0.001762    1.522017    0.188108
C       1.510143    1.590832   -0.257038
C       1.427727    0.107814   -0.652514
C       1.687627   -1.305700   -0.052982
C       0.637362   -1.011312    1.057874
C       0.038240   -0.019956    0.012384
C      -0.307878   -0.789853   -1.259166
C       0.867453   -1.714108   -1.310703
N       0.949465   -0.396383   -2.018192
H      -0.219890    1.878332    1.197633
H      -0.682360    2.020246   -0.506263
H       1.746606    2.268369   -1.080754
H       2.206222    1.787801    0.562667
H       2.647541   -1.793737    0.120004
H       0.017739   -1.835887    1.422601
H       1.079643   -0.483296    1.908908
H      -1.252401   -0.978834   -1.759490
H       0.889746   -2.648009   -1.857529
