23

C      -0.014828    1.592544   -0.014715
C       0.025655    0.078909    0.232086
C      -1.350714   -0.563642    0.101799
C      -2.032700   -0.813702   -1.286627
C      -1.072528   -2.019131   -1.499559
C      -1.547011   -2.114094   -0.015723
C      -1.164786   -3.155063    0.997517
O      -1.536509   -4.427970    0.484556
C      -2.978295   -1.803731   -0.549367
H       0.972669    2.044526    0.121089
H      -0.348588    1.817854   -1.033114
H      -0.706235    2.088370    0.675763
H       0.748136   -0.379462   -0.450788
H       0.405799   -0.110144    1.245167
H      -2.031644   -0.103807    0.831298
H      -2.319820   -0.063297   -2.024679
H      -1.429934   -2.810878   -2.161941
H      -0.017878   -1.807645   -1.683546
H      -0.080061   -3.103329    1.189259
H      -1.676326   -2.942302    1.951267
H      -1.284771   -5.095455    1.129337
H      -3.683785   -1.371184    0.166719
H      -3.444703   -2.581365   -1.158152
