16

N      -0.660419    1.317059   -0.187512
C      -0.236440    0.072929   -0.526827
O       0.059762   -0.221707   -1.674359
C      -0.126047   -0.912893    0.633799
C      -0.622305   -2.327569    0.322561
C      -1.716338   -2.590494   -0.663393
N      -0.340518   -2.983232   -0.965766
C      -0.521688   -3.199956    1.478307
N      -0.451247   -3.854054    2.428938
H      -0.683845    2.024814   -0.904320
H      -0.885494    1.574633    0.756976
H       0.936820   -0.969613    0.901003
H      -0.651052   -0.539520    1.518897
H      -2.407508   -3.407402   -0.480571
H      -2.135585   -1.729771   -1.176570
H       0.070026   -2.274237   -1.576218
