21

C      -0.100578    1.533280    0.069971
C       0.075427    0.017234    0.034675
C       1.017686   -0.537214   -1.084940
C       2.002767   -1.338174   -0.205964
O       2.988136   -2.099529   -0.830960
C       2.311295   -0.323241    0.941748
C       0.806263   -0.585800    1.255033
O       0.198035   -0.255632    2.462783
C       1.055148   -2.053165    0.784950
H       0.860422    2.055319    0.128494
H      -0.612806    1.885127   -0.831724
H      -0.695361    1.829877    0.938436
H      -0.915492   -0.445295   -0.037634
H       0.504269   -1.177104   -1.808170
H       1.521697    0.266167   -1.635602
H       3.467580   -1.529070   -1.441542
H       2.976083   -0.757579    1.693298
H       2.632528    0.688980    0.682923
H       0.708042   -0.645385    3.179685
H       0.212394   -2.621103    0.381174
H       1.607012   -2.645399    1.519711
