19

C      -0.138549    1.520135    0.075942
C       0.001399   -0.007670   -0.009973
N       0.581092   -0.530746   -1.265904
C       1.419379    0.280879   -2.143394
C       2.018273   -0.790834   -1.303750
C       2.812518   -0.412817   -0.063981
N       2.045206   -0.774369    1.120104
C       0.712055   -0.517427    1.252520
O       0.111564   -0.662113    2.301283
H       0.828384    2.030986    0.129772
H      -0.681399    1.901998   -0.793343
H      -0.700069    1.771259    0.979038
H      -1.005266   -0.430407    0.059864
H       1.252907    0.125394   -3.206190
H       1.651387    1.307602   -1.870539
H       2.287640   -1.745147   -1.751881
H       3.761793   -0.954565   -0.041950
H       3.056073    0.659233   -0.068117
H       2.524061   -1.013432    1.975535
