16

O      -0.543294    1.495370   -0.888130
C       0.214533    1.124134   -0.029804
C       1.490395    1.877779    0.359525
O       2.213468    1.445321    1.240110
N       1.680009    3.002957   -0.363426
C       2.807144    3.895705   -0.172444
C       2.351139    5.292498    0.174216
C       3.044376    6.476730   -0.343167
O       1.805180    6.049067   -0.911402
H       0.066285    0.201160    0.564362
H       0.974697    3.225712   -1.052798
H       3.411040    3.472187    0.634913
H       3.418508    3.930798   -1.082213
H       1.789883    5.381375    1.104974
H       3.006888    7.409217    0.216946
H       3.918644    6.352373   -0.980810
