16

C      -0.028468    1.570112    0.044319
C       0.030651    0.066762    0.058662
C      -1.256141   -0.802441    0.184623
C      -0.344810   -1.880276    0.763284
C       0.692929   -0.893564    1.138180
N       0.981306   -1.863829    0.045975
C       0.849296   -0.756074   -0.955298
H       0.975158    2.009432    0.036721
H      -0.555045    1.928399   -0.848435
H      -0.559100    1.959736    0.919816
H      -1.931454   -0.414742    0.952786
H      -1.818296   -1.010503   -0.733118
H      -0.609866   -2.812562    1.244059
H       1.312764   -0.753231    2.014315
H       0.376078   -1.031669   -1.906342
H       1.845012   -0.343519   -1.142826
