17

C      -0.361876    1.405060   -0.160299
C      -0.040986   -0.056416    0.035820
O       0.164560   -0.599826    1.091625
O      -0.011392   -0.700616   -1.151880
C       0.283723   -2.112205   -1.065220
C       0.275014   -2.681915   -2.399253
C       0.269293   -3.188386   -3.490177
C       0.288250   -3.789999   -4.816299
O      -0.985116   -4.349333   -5.109627
H       0.388541    1.870133   -0.805713
H      -1.329664    1.512158   -0.658048
H      -0.382337    1.903842    0.807760
H       1.256492   -2.244894   -0.579173
H      -0.460387   -2.595147   -0.422603
H       0.566301   -3.016587   -5.550889
H       1.079874   -4.556494   -4.847787
H      -0.934015   -4.733179   -5.991035
