16

O      -0.009562    0.004350    0.153569
C      -0.000919    1.208177    0.031340
N      -1.123717    2.017276   -0.086940
C      -0.799283    3.436883    0.160234
C      -0.741206    3.644522    1.670737
C       0.499866    3.422195    2.113732
C       1.445435    3.234354    0.978296
C       0.687106    3.516283   -0.280917
C       1.192561    2.118610   -0.085590
H      -1.991417    1.632613    0.262474
H      -1.478603    4.089899   -0.389707
H      -1.629298    3.756340    2.281676
H       0.803804    3.358485    3.151570
H       2.485993    3.519055    1.082354
H       1.016159    4.184592   -1.065716
H       2.067250    1.728521   -0.590143
