18

C      -0.035753    1.561509    0.040775
C      -0.008457    0.029508    0.019896
C       0.707523   -0.522075    1.253677
O      -1.324435   -0.505741    0.054522
C       0.715884   -0.479911   -1.290355
C       0.810945   -2.014857   -1.296490
O       1.851873   -2.602880   -1.196868
C      -0.031871   -0.047142   -2.467602
N      -0.670383    0.275949   -3.376303
H       0.975874    1.977514    0.070141
H      -0.540763    1.963291   -0.843599
H      -0.575030    1.898450    0.930197
H       0.233863   -0.122083    2.153380
H       0.643600   -1.611839    1.294113
H       1.763076   -0.236976    1.255920
H      -1.856842   -0.056367   -0.613065
H       1.735917   -0.086521   -1.331487
H      -0.164735   -2.531571   -1.376742
