17

C       0.027630    1.498291    0.234828
C       0.304656    0.020663   -0.027529
C       0.796322   -0.266584   -1.430054
N       0.958611    0.644362   -2.294891
N       1.042576   -1.647557   -1.638207
C       1.488942   -2.242734   -2.777815
O       1.762636   -1.706941   -3.835717
C       1.636457   -3.761041   -2.626011
O       1.382909   -4.349728   -1.607165
H       0.929851    2.095296    0.085403
H      -0.730560    1.879531   -0.452599
H      -0.323341    1.641172    1.260701
H       1.051300   -0.362934    0.682364
H      -0.600863   -0.577702    0.147267
H       1.294667    0.260901   -3.178688
H       0.877712   -2.290768   -0.872907
H       1.999035   -4.251555   -3.549519
