16

N      -0.247588    1.191884   -0.172089
C      -0.060184   -0.029687    0.021996
O       1.078100   -0.735653    0.352742
C       0.344382   -1.993881    0.450019
C      -0.957858   -1.281150   -0.012228
O      -2.018126   -1.308046    0.914980
C      -3.258640   -1.549216    0.246522
C      -2.880694   -1.798357   -1.183939
C      -1.570215   -1.646636   -1.331657
H       0.609060    1.732306   -0.037132
H       0.764468   -2.750815   -0.216435
H       0.300445   -2.352337    1.480612
H      -3.761948   -2.406903    0.715062
H      -3.918324   -0.676086    0.357389
H      -3.598438   -2.047688   -1.954524
H      -0.991410   -1.736507   -2.240948
