22

C       0.095252    1.559876   -0.026045
C       0.079373    0.029631    0.010628
C       0.733641   -0.540763    1.273348
C       0.735418   -2.064664    1.322877
O       1.455035   -2.563217    0.188874
C       2.103847   -3.786879    0.511839
C       2.295823   -3.764983    2.013674
N       2.898551   -2.499156    2.481876
C       1.431413   -2.680834    2.524779
H       1.120594    1.944934    0.005945
H      -0.375243    1.942554   -0.937321
H      -0.442216    1.985013    0.829588
H      -0.957119   -0.328496   -0.055638
H       0.598999   -0.371544   -0.865624
H       1.773036   -0.203005    1.349916
H       0.206467   -0.169450    2.163327
H      -0.303851   -2.440295    1.301810
H       1.488335   -4.657623    0.231518
H       3.041316   -3.823929   -0.052971
H       2.468496   -4.687079    2.558219
H       3.274920   -2.638923    3.416708
H       0.916194   -2.738804    3.477684
