11

N      -0.128481    1.341314    0.008429
C       0.026754    0.085297    0.001072
N      -1.120249   -0.735891    0.003038
N      -1.142960   -2.054516   -0.003642
N      -0.037551   -2.694863   -0.012933
C       1.125298   -1.916850   -0.015283
N       1.225250   -0.630641   -0.009132
C       2.339591   -2.699243   -0.025723
N       3.309884   -3.326152   -0.034081
H       0.780201    1.802163    0.005900
H      -2.030257   -0.291699    0.010258
