23

C       0.213277    1.271937    0.192353
O       0.066676   -0.134106    0.292873
C      -1.262456   -0.602017    0.062440
C      -1.201930   -1.967410   -0.645907
C      -0.233787   -2.042973   -1.823648
C      -0.922571   -2.940633    0.514255
C      -1.855149   -2.437879    1.629925
C      -1.957142   -0.894394    1.440346
O      -1.370395   -0.151232    2.490427
H       1.267203    1.497618    0.375667
H      -0.055175    1.628871   -0.812388
H      -0.402833    1.797502    0.932755
H      -1.809467    0.144520   -0.526090
H      -2.220983   -2.167637   -1.009125
H       0.783101   -1.804475   -1.502953
H      -0.231892   -3.047156   -2.259896
H      -0.510617   -1.337761   -2.615166
H      -1.098323   -3.985481    0.242299
H       0.128525   -2.852707    0.814498
H      -2.846426   -2.892198    1.521653
H      -1.503397   -2.666555    2.638818
H      -3.004917   -0.581766    1.407174
H      -0.419261   -0.180411    2.321021
