21

C      -0.115415    1.575057    0.126863
C       0.062770    0.067177    0.012253
O      -1.192302   -0.572505   -0.180290
C       1.147399   -0.483222   -0.987700
C       1.780101   -1.281392    0.168169
C       2.290992   -2.687330    0.064582
O       3.577424   -2.779181   -0.541128
C       2.224198   -0.322574    1.234753
C       0.766186   -0.683055    1.148975
H       0.830629    2.082395    0.334662
H      -0.510055    1.989055   -0.810129
H      -0.821571    1.811664    0.928690
H      -1.616373   -0.164002   -0.943095
H       0.669981   -1.117184   -1.739483
H       1.795605    0.249318   -1.481784
H       2.407470   -3.114028    1.066892
H       1.559537   -3.312204   -0.472862
H       3.502526   -2.431585   -1.435523
H       2.756620   -0.770785    2.067956
H       2.574396    0.674124    0.976907
H       0.232029   -1.162996    1.960661
