21

C      -0.020587    1.361341   -0.300709
C       1.441764    1.554953    0.138978
C       1.305228    0.139458    0.743073
C       2.257647   -1.015012    0.311891
C       2.623897   -1.564362    1.703387
C       1.240112   -1.568461    2.418040
C       1.383905   -0.026374    2.266202
C       2.909998   -0.248259    2.485463
O      -0.044726    0.017982    0.220073
H      -0.753017    2.008082    0.198794
H      -0.208213    1.385076   -1.380778
H       2.160485    1.635928   -0.678777
H       1.626732    2.355349    0.858843
H       1.718113   -1.733472   -0.311273
H       3.128246   -0.654489   -0.245323
H       3.298686   -2.419479    1.746639
H       0.397024   -2.051295    1.918027
H       1.304621   -1.890984    3.459787
H       0.801238    0.677943    2.861170
H       3.156006   -0.420216    3.535959
H       3.610437    0.471564    2.049392
