20

C      -0.016814    1.488861   -0.325156
C      -0.127066   -0.036920   -0.327600
C      -1.314619   -0.540502    0.517849
C      -1.445168   -1.992591    0.530014
C      -1.536034   -3.192969    0.516860
C      -1.637531   -4.645363    0.532051
O      -2.454739   -5.092757   -0.534401
C      -2.577213   -6.494996   -0.551608
H       0.830757    1.824795   -0.929957
H      -0.921574    1.953486   -0.732963
H       0.124542    1.876100    0.690215
H      -0.242301   -0.406149   -1.352625
H       0.796303   -0.482958    0.058592
H      -1.208410   -0.174638    1.548342
H      -2.244930   -0.096240    0.138513
H      -0.630954   -5.093615    0.453976
H      -2.053645   -4.982939    1.498042
H      -3.217920   -6.753774   -1.397570
H      -1.601465   -6.991471   -0.678945
H      -3.036736   -6.878983    0.373671
