18

C       0.015717    1.461795    0.089148
C       1.567033    1.551119   -0.017956
C       2.035017    1.371777   -1.499149
C       1.654264   -0.136726   -1.381866
C       2.709992   -1.224322   -1.080971
O       2.549159   -0.994496    0.369425
C       1.555045   -0.018476    0.119308
C      -0.000580   -0.087437   -0.078185
N       0.240648   -0.558725   -1.474541
H      -0.306112    1.725294    1.101325
H      -0.565520    2.038346   -0.637931
H       2.070133    2.272286    0.625711
H       1.522044    1.963946   -2.262835
H       3.114121    1.505931   -1.618784
H       2.412749   -2.240220   -1.356895
H       3.740042   -1.024191   -1.397307
H      -0.744804   -0.650733    0.487734
H      -0.319176   -0.118135   -2.199337
