15

O       0.154872    0.468466   -1.146730
C       0.101329    1.053631   -0.065776
O       0.893446    1.157446    0.889878
C      -1.297455    1.831700    0.106245
C      -2.091743    1.766684    1.439390
C      -1.061418    2.723660    2.080596
C      -1.346749    3.279398    0.667028
N      -2.866090    3.038955    0.956789
H      -3.459784    2.911794    0.134999
H      -3.308860    3.622776    1.672804
H      -1.900439    1.669331   -0.792676
H      -2.669618    0.955302    1.878036
H      -1.394322    3.322941    2.933422
H      -0.067646    2.271503    2.152394
H      -1.059314    4.223944    0.208882
