19

C      -0.094729    1.529843    0.007565
C       0.024523    0.017552   -0.044310
O       1.162875   -0.307679   -0.991181
C       2.026975   -0.383486    0.217378
C       0.724170   -0.779772    0.964792
C       0.394519   -2.275581    0.722258
C      -1.132023   -2.161659    0.482662
C      -1.222532   -0.660563    0.693085
O      -0.386899   -0.439291    1.932033
H       0.872901    2.027453    0.109898
H      -0.534323    1.864902   -0.939146
H      -0.741988    1.854778    0.823798
H       2.799758   -1.148558    0.114718
H       2.464499    0.589410    0.452866
H       0.933838   -2.697508   -0.125856
H       0.640908   -2.843237    1.623120
H      -1.443546   -2.461430   -0.521627
H      -1.730056   -2.707488    1.215083
H      -2.189701   -0.160013    0.757966
