14

N      -0.064053    1.324799    0.009665
C      -0.023665    0.068859    0.002955
O       1.081454   -0.738313   -0.006397
C       0.719745   -2.140913   -0.011993
C      -0.774466   -2.093871   -0.004758
N      -1.795597   -2.902051   -0.004189
C      -2.892891   -2.046059    0.005453
C      -2.512490   -0.728202    0.010456
N      -1.133912   -0.778270    0.003748
H       0.874938    1.718516    0.007324
H       1.140704   -2.609530   -0.907170
H       1.149040   -2.618793    0.874284
H      -3.898473   -2.438066    0.008159
H      -3.054304    0.200898    0.017805
