14

N       0.006455    1.298885   -0.059256
C       0.061595   -0.050325   -0.029200
N       1.186087   -0.672385    0.012672
C       1.199475   -2.034820    0.003528
N       2.265761   -2.787809    0.070660
C       1.781978   -4.074987    0.030484
O       2.613066   -5.133650    0.080071
C       0.429882   -4.073117   -0.060889
O       0.041582   -2.744411   -0.079842
H       0.861981    1.820881    0.044546
H      -0.867919    1.780741    0.042226
H      -0.912097   -0.546076   -0.062382
H       3.505479   -4.771649    0.140864
H      -0.341318   -4.817752   -0.120284
