15

O       0.342821   -0.153397   -0.589150
C       0.141232    0.972886   -0.222557
C       1.222363    2.020891   -0.053125
O       2.560289    1.533538   -0.190835
C       2.842552    2.438013   -1.274552
C       2.585630    1.807742   -2.666480
C       1.166017    2.411507   -2.626618
O       0.259921    2.465563   -3.402737
C       1.397829    3.033662   -1.234066
H      -0.881763    1.347702    0.010446
H       1.073760    2.534822    0.907892
H       3.754762    3.014611   -1.120049
H       3.190386    2.221022   -3.480364
H       2.633281    0.716611   -2.690577
H       1.115841    4.071082   -1.064285
