15

O      -0.029891   -0.025364   -0.005129
C      -0.024139    1.166006    0.045022
C      -1.049829    2.305329    0.005919
C      -0.811750    2.886185    1.428735
C       0.635541    3.341369    1.122860
C       0.368018    4.292734   -0.056017
N      -0.016133    3.072977   -0.853987
C       1.006799    2.285290    0.005214
H      -2.058785    2.205122   -0.385420
H      -1.467063    3.722586    1.684794
H      -0.895195    2.124316    2.209067
H       1.292324    3.582499    1.959021
H      -0.401316    5.064619    0.049242
H       1.268090    4.724522   -0.500553
H       2.033084    2.194882   -0.345823
