17

N       0.088985    1.172730    0.171678
C       0.056783   -0.081098    0.059760
C      -1.013745   -0.888657   -0.642850
C      -0.792227   -2.310284   -0.107855
C       0.702749   -2.299587    0.267410
C       1.611738   -2.800730   -0.873181
C       3.032307   -2.709896   -0.545380
N       4.154937   -2.653181   -0.279901
O       1.008437   -0.932501    0.568324
H       0.926104    1.471293    0.674966
H      -2.004049   -0.481406   -0.439584
H      -0.854063   -0.828925   -1.725030
H      -1.391035   -2.480000    0.790775
H      -1.037972   -3.095192   -0.826328
H       0.913487   -2.879554    1.169466
H       1.368708   -3.846857   -1.091780
H       1.419212   -2.224769   -1.785454
