16

C      -0.010103    1.550157    0.009423
C      -0.022900    0.018572    0.003061
N      -1.361956   -0.545604    0.012674
C      -2.109177   -0.806939    1.135568
C      -3.353994   -1.238166    0.738374
C      -3.365877   -1.234248   -0.683447
C      -2.127958   -0.800478   -1.098994
H       1.019503    1.921884    0.001579
H      -0.526658    1.946174   -0.869487
H      -0.510435    1.938750    0.900945
H       0.496313   -0.361424   -0.882667
H       0.512274   -0.368884    0.875980
H      -1.685472   -0.666894    2.117909
H      -4.158096   -1.536861    1.393361
H      -4.180834   -1.529336   -1.326545
H      -1.720807   -0.654701   -2.087483
