17

O      -0.121444    1.309172   -0.815012
C       0.038681    0.211080    0.067543
C      -1.280657   -0.479647    0.306289
O      -1.771392   -1.302115   -0.772848
C      -1.473616   -1.925996    0.473929
C      -0.326640   -2.932616    0.501700
O       0.274130   -2.964747    1.793859
C      -0.791139   -4.255301    0.079706
C      -1.204611   -5.344506   -0.215778
H      -0.481847    0.958687   -1.637392
H       0.789610   -0.497031   -0.306845
H       0.411183    0.624507    1.010535
H      -2.045276    0.174028    0.729427
H      -2.351811   -2.254426    1.033795
H       0.454152   -2.592800   -0.184895
H      -0.260801   -3.539444    2.352235
H      -1.554828   -6.307162   -0.497383
