20

C      -0.064334    1.509486    0.084838
C       1.316441    2.219095    0.067758
C       2.252548    1.573522    1.072772
C       2.226017    0.250485    1.092366
C       2.609603   -0.958439    1.887877
N       1.292496   -1.481788    2.400735
C       1.722765   -1.808554    1.027757
C       1.394793   -0.588748    0.133838
C      -0.015980   -0.036536   -0.127407
H      -0.515873    1.714199    1.060953
H      -0.718237    1.966677   -0.665488
H       1.745127    2.180440   -0.944573
H       1.178032    3.280632    0.296596
H       2.839812    2.180757    1.754829
H       3.528074   -1.198113    2.408270
H       1.516311   -2.292140    2.980772
H       1.851040   -2.837205    0.713581
H       1.947174   -0.693870   -0.809056
H      -0.724888   -0.511278    0.556638
H      -0.334579   -0.288603   -1.144273
