17

N      -0.031928   -1.093090    0.396654
C      -0.013231    0.045270    0.201272
C       0.030032    1.483487   -0.071335
C       1.439010    2.012312   -0.184538
C       2.623616    1.383132   -0.898738
C       3.453699    2.287783    0.031879
C       3.165262    3.738246   -0.402210
C       1.767858    3.443582    0.109867
N       2.248241    2.352440    1.032387
H      -0.525148    1.677144   -0.997665
H      -0.494475    2.010629    0.733492
H       2.718467    0.329046   -0.626773
H       2.731435    1.503480   -1.981698
H       4.431038    1.982340    0.397818
H       3.669959    4.458645    0.246053
H       3.314087    4.010940   -1.452004
H       1.007933    4.149221    0.428796
