15

O      -0.098929    0.046042    0.391353
C      -0.066053    1.172437    0.049853
O      -1.171930    2.026820   -0.258639
C      -0.220447    2.879991   -1.040115
C       0.687631    4.181877   -1.004304
C       0.738989    4.667286    0.436041
C       0.912416    3.270341    1.088575
C       0.875216    2.400701   -0.199302
O       1.814695    3.191787   -1.074151
H      -0.204993    2.489982   -2.056731
H       0.698939    4.877156   -1.842789
H       1.590061    5.329729    0.603245
H      -0.176183    5.182792    0.737109
H       1.880369    3.135457    1.575269
H       0.123666    3.019192    1.799245
