20

C       0.302051    1.491746    0.186677
C      -0.025140    0.019860   -0.084313
C       0.568043   -0.511789   -1.394163
C       0.025420    0.163694   -2.647830
O       2.038380   -0.456637   -1.361756
C       2.170880   -1.894754   -1.411214
C       0.672776   -2.024187   -1.466613
N      -0.203851   -2.928261   -1.544692
O       0.390836   -4.203494   -1.585998
H       1.382544    1.655413    0.142754
H      -0.173785    2.159809   -0.537475
H      -0.046645    1.783719    1.181610
H       0.362204   -0.595044    0.735657
H      -1.109711   -0.141084   -0.109032
H       0.254472    1.232640   -2.636444
H       0.474955   -0.272240   -3.543331
H      -1.059966    0.037173   -2.708079
H       2.711587   -2.243534   -2.300174
H       2.650959   -2.312199   -0.516842
H      -0.375224   -4.784340   -1.647329
