16

O       0.128379   -0.024868    0.308920
C       0.051286    1.157924    0.143424
N      -1.064019    1.902479   -0.194379
C      -0.849164    3.314292   -0.039211
C      -1.594566    4.308554   -0.958303
O      -2.081098    5.052520    0.173773
C      -1.572069    4.080083    1.103957
C       0.691645    3.341663   -0.077213
O       1.110380    2.016312    0.257177
H      -1.967256    1.474305   -0.068124
H      -0.971452    4.919900   -1.622841
H      -2.404594    3.853006   -1.543205
H      -2.373652    3.503558    1.586297
H      -0.937945    4.531050    1.876553
H       1.052486    3.587159   -1.083236
H       1.125943    4.042094    0.639271
