19

C      -0.730234    1.334373   -0.050988
O       0.706402    1.325290   -0.040660
C       0.031452    0.085653   -0.008051
C       0.131732   -0.944138    1.119212
C      -0.129763   -2.046350    0.055030
C       0.528173   -3.435419    0.101465
O      -0.752280   -4.098605    0.112457
C      -1.453257   -2.840669    0.069686
C       0.147054   -1.010064   -1.069789
H      -1.199624    1.715949    0.855171
H      -1.186745    1.660533   -0.984942
H       1.148082   -0.996140    1.523809
H      -0.577041   -0.868467    1.948244
H       1.124723   -3.704606   -0.780588
H       1.112195   -3.650801    1.006386
H      -2.085891   -2.692347    0.955214
H      -2.073396   -2.746148   -0.831913
H      -0.550021   -0.984717   -1.911705
H       1.168943   -1.085891   -1.456267
