18

O      -0.125276    1.379391   -0.364182
C       0.037842   -0.030270   -0.215520
C      -1.344688   -0.569397    0.160447
O      -2.298019   -0.111615   -0.780782
C      -1.372575   -2.098961    0.172078
C      -2.662918   -2.789539   -0.122640
N      -1.582241   -2.798713   -1.118125
C      -0.434760   -2.705063    1.085031
C       0.336395   -3.180305    1.875967
H       0.652288    1.736577   -0.801452
H       0.365735   -0.492554   -1.157520
H       0.766580   -0.274043    0.566718
H      -1.596139   -0.205018    1.168964
H      -2.024917    0.789435   -1.000213
H      -2.859878   -3.746763    0.349587
H      -3.526879   -2.159307   -0.305364
H      -1.794831   -2.074709   -1.804440
H       1.017598   -3.616130    2.564151
