13

O       0.022452    0.070935    0.064475
C      -0.001167    1.262290    0.115986
C      -1.064647    2.313841    0.061173
C      -0.472945    3.550266    0.665069
C       0.937320    3.265624    1.187200
C       1.150857    2.686128    2.507275
N       1.311293    2.227171    3.555421
C       1.041981    2.373710   -0.077455
N      -0.109643    3.213771   -0.732940
H      -2.115468    2.230064   -0.182241
H      -1.094462    4.404937    0.904967
H       1.550368    4.163641    1.070322
H       1.982226    2.211156   -0.595771
