20

C       0.191807    1.311892    0.126889
O      -0.265969    0.034014   -0.253574
C       0.506340   -0.555302   -1.267460
C       1.838387   -1.246060   -0.814272
C       0.932114   -2.401195   -0.294800
C       0.072487   -2.020233   -1.537902
C       1.001833   -2.399664   -2.704709
C       2.345958   -1.802521   -2.156645
H       1.201149    1.280592    0.562900
H       0.209242    2.005980   -0.728259
H      -0.503771    1.695583    0.877238
H       0.574342    0.122191   -2.134697
H       2.562195   -0.742283   -0.172568
H       1.359043   -3.407865   -0.256328
H       0.436689   -2.154547    0.642961
H      -0.983133   -2.280114   -1.616714
H       1.052097   -3.481487   -2.854661
H       0.695073   -1.943881   -3.650805
H       2.752253   -1.021494   -2.806758
H       3.121561   -2.561650   -2.022606
