19

C      -0.133291    1.559543    0.021681
C       0.072631    0.044813    0.070954
C       0.814299   -0.403181    1.337748
N      -1.227911   -0.617026   -0.035775
C      -1.516427   -1.787238   -0.540390
N      -0.703732   -2.656763   -1.097885
H      -1.216220   -3.479746   -1.419140
H       0.291016   -2.556749   -1.212301
C      -3.040704   -2.212357   -0.483251
O      -3.742028   -1.351146    0.062267
O      -3.233336   -3.321877   -0.994448
H       0.829661    2.074135    0.070372
H      -0.641217    1.858805   -0.898841
H      -0.736779    1.894017    0.872610
H       0.655952   -0.255031   -0.810229
H       0.259102   -0.105316    2.232498
H       0.937360   -1.489827    1.363665
H       1.806467    0.055820    1.379559
H      -2.089921   -0.195453    0.329260
