16

C      -0.023668    1.471883    0.021324
C      -0.019603   -0.026367   -0.015805
N      -0.023474   -0.611398   -1.191908
N      -0.010048   -1.940835   -1.209528
C       0.000090   -2.749483   -0.110463
C       0.000185   -2.199351    1.140045
N      -0.042476   -2.889774    2.330497
C       0.000327   -0.743673    1.253434
O       0.027453   -0.185778    2.356817
H       0.849763    1.841557    0.568668
H      -0.023223    1.878533   -0.991040
H      -0.900759    1.838201    0.565255
H      -0.010577   -2.340555   -2.133584
H       0.004450   -3.814872   -0.309411
H       0.397846   -3.795419    2.368309
H       0.173500   -2.275896    3.107998
