18

C       0.107023    1.626626    0.150826
C       0.162228    0.125913    0.143033
C      -1.107040   -0.781923    0.033892
C      -0.258961   -1.865663    0.695711
C       1.179717   -1.671097    0.161511
C       0.677101   -0.836951    1.296896
N       1.138445   -0.554569   -0.766758
C       1.121656   -0.621946   -2.130949
O       1.556024   -1.545505   -2.785265
H       1.103167    2.053273    0.299170
H      -0.294470    2.012924   -0.792205
H      -0.544939    1.975800    0.957411
H      -1.899263   -0.437253    0.703774
H      -1.509561   -0.950745   -0.971681
H      -0.580457   -2.806622    1.122446
H       1.926678   -2.449924    0.127809
H       1.054810   -0.656283    2.292464
H       0.727680    0.310939   -2.585605
