13

C      -0.060203    1.504705    0.050519
C      -0.005814    0.019356   -0.034100
C      -0.027155   -0.853996   -1.083109
N       0.048600   -2.172482   -0.651002
C       0.114358   -2.080180    0.646660
O       0.201877   -3.091714    1.528716
N       0.087169   -0.798548    1.094735
H       0.835193    1.929809    0.521970
H      -0.133318    1.925408   -0.955217
H      -0.928351    1.859462    0.620738
H      -0.092935   -0.616480   -2.134131
H       0.206204   -3.903101    1.005608
H       0.127156   -0.507881    2.056814
