17

O       0.327411    0.126315   -0.601300
C       0.162170    1.214744   -0.137557
C      -1.040238    1.924419    0.517613
C      -0.184402    3.217539    0.620280
C       0.623095    3.349230    1.941224
C       1.791617    2.615256    1.269640
C       3.232245    2.766527    1.481963
O       2.535420    1.573797    1.867137
C       1.037785    2.476656   -0.066212
H      -1.879129    1.998983   -0.182639
H      -1.410435    1.491854    1.451713
H      -0.615159    4.125366    0.203834
H       0.859942    4.378374    2.223560
H       0.194902    2.838085    2.807993
H       3.917834    2.655655    0.642831
H       3.593873    3.382553    2.304781
H       1.554260    2.783728   -0.976653
