17

C       0.086003    1.517834   -0.154464
N       0.037003    0.062596   -0.037163
C      -1.116473   -0.491559    0.726082
C      -0.290265   -1.732046    1.187255
N      -0.591281   -1.595959    2.645656
C      -0.541818   -0.181395    2.161919
C       0.678109   -0.502021    1.199280
C       2.077905   -0.444285    1.478232
C       3.256425   -0.371591    1.706566
H       1.099294    1.817934   -0.437460
H      -0.594875    1.833191   -0.951384
H      -0.187565    2.057944    0.767378
H      -2.147859   -0.448641    0.372594
H      -0.136894   -2.679790    0.672975
H      -1.560531   -1.868250    2.829327
H      -0.690095    0.671045    2.824534
H       4.297436   -0.316845    1.909470
