18

C       0.079882    1.487327    0.105989
C       0.137038   -0.025380    0.086825
C       0.620617   -0.823973   -1.134869
C       1.771958   -0.094021   -1.811607
O       2.487541    0.018012   -0.547205
C       1.475533   -0.755615    0.091890
C      -0.897209   -0.818567    0.842156
N      -1.866972   -0.097118    1.479126
O      -0.858340   -2.037640    0.906053
H       1.007131    1.906132   -0.289278
H      -0.753287    1.878245   -0.489892
H      -0.019825    1.861355    1.130783
H       0.044594   -1.648922   -1.527120
H       2.330153   -0.731571   -2.505171
H       1.581163    0.880653   -2.274513
H       1.757380   -1.489346    0.835458
H      -2.007976    0.882527    1.311125
H      -2.606417   -0.620690    1.918635
