23

C       0.032599    1.601171   -0.022951
C       0.024707    0.065258    0.042981
C       0.602385   -0.548354   -1.243033
C       0.902521   -2.047967   -1.122674
C      -0.371007   -2.871244   -0.887393
O       1.478451   -2.411559   -2.381932
C       1.925695   -2.265623    0.011448
C       1.610668   -1.463212    1.247943
C       0.762998   -0.435240    1.260787
H       1.056322    1.983217   -0.100767
H      -0.528239    1.958211   -0.893046
H      -0.421635    2.038188    0.872572
H      -1.028595   -0.243661    0.136811
H      -0.077717   -0.385173   -2.086137
H       1.543237   -0.043465   -1.494347
H      -1.104712   -2.672728   -1.674158
H      -0.137838   -3.942998   -0.903618
H      -0.823972   -2.651022    0.083140
H       1.655888   -3.358261   -2.361555
H       1.984484   -3.333915    0.264099
H       2.917802   -1.992863   -0.373317
H       2.113906   -1.758208    2.165967
H       0.573848    0.094143    2.192945
