24

C       0.034251    1.513063   -0.105930
C       0.068238   -0.009195    0.087620
C       0.763041   -0.384042    1.403911
C      -1.335268   -0.607339    0.013528
C      -2.125670   -0.531677   -1.324305
C      -2.661589   -1.965515   -1.052778
C      -2.792905   -2.939531   -2.213245
C      -1.502697   -2.153298   -0.033690
H       1.044021    1.937038   -0.099567
H      -0.437801    1.786313   -1.055149
H      -0.532795    1.996314    0.699081
H       0.652508   -0.442257   -0.738538
H       0.222086    0.031425    2.262904
H       0.812953   -1.469642    1.536183
H       1.786203    0.005074    1.437954
H      -1.945878   -0.194132    0.827460
H      -2.854475    0.273032   -1.452169
H      -1.444450   -0.522132   -2.184051
H      -3.614099   -1.902399   -0.513706
H      -1.850309   -3.018465   -2.767278
H      -3.058299   -3.943899   -1.863731
H      -3.567489   -2.618023   -2.918939
H      -0.635062   -2.628971   -0.507250
H      -1.719659   -2.680933    0.898828
