29

C       0.342628    1.411311    0.588797
C       0.417571   -0.108622    0.414205
C      -0.515825   -0.691910   -0.666624
C      -0.201263   -0.115529   -2.056903
C      -0.441895   -2.242023   -0.667136
C      -1.774056   -3.030004   -0.788339
C      -2.566956   -2.628326   -2.045380
C      -1.428832   -4.528630   -0.879692
C      -2.647547   -2.802262    0.460495
H       0.966476    1.738314    1.426832
H       0.685921    1.946779   -0.301465
H      -0.684257    1.735176    0.795157
H       1.452262   -0.401970    0.186290
H       0.174290   -0.586204    1.371944
H      -1.537545   -0.386247   -0.402449
H       0.842324   -0.317300   -2.328705
H      -0.834043   -0.561777   -2.828659
H      -0.351833    0.967407   -2.095212
H       0.224150   -2.562520   -1.479776
H       0.043278   -2.577097    0.258988
H      -1.978640   -2.789043   -2.955558
H      -3.479931   -3.228233   -2.131592
H      -2.868393   -1.576606   -2.019722
H      -0.858622   -4.858272   -0.004005
H      -2.336769   -5.139468   -0.935744
H      -0.826853   -4.742162   -1.769907
H      -2.933211   -1.751932    0.576549
H      -3.572165   -3.386931    0.399429
H      -2.120091   -3.108071    1.371045
