14

C      -0.027058    1.515182    0.050375
C      -0.011469    0.026574   -0.032433
C      -0.030646   -0.818636   -1.099628
N      -0.003729   -2.150246   -0.701150
C       0.031399   -2.121765    0.596485
N       0.029237   -0.821277    1.085340
C       0.061822   -0.465022    2.433196
O       0.095879   -1.260549    3.333650
H       0.866251    1.917221    0.542615
H      -0.058943    1.926582   -0.960979
H      -0.902235    1.896054    0.589775
H      -0.062466   -0.550415   -2.145062
H       0.059928   -2.963078    1.270420
H       0.052617    0.628228    2.579256
