16

C       0.032372    1.473026    0.069008
C      -0.058723   -0.009455   -0.022281
C      -0.072221   -0.841622   -1.067526
C      -0.006805   -2.235119   -0.452130
O      -0.754764   -2.096080    0.727019
C      -0.009349   -0.952172    1.194662
C       1.397682   -1.559082    1.141167
N       2.363709   -1.310864    1.910863
O       1.368083   -2.407423    0.069141
H       0.944954    1.771843    0.598458
H       0.043914    1.935020   -0.921163
H      -0.811100    1.886687    0.635146
H      -0.019522   -0.616402   -2.122911
H      -0.273047   -3.117295   -1.027505
H      -0.346964   -0.595245    2.162964
H       3.192509   -1.842028    1.636396
