15

O       0.101354    1.392892    0.273068
C      -0.015830    0.020113    0.055824
C      -1.433816   -0.513435   -0.057843
O      -2.291451    0.251188   -0.929259
C      -2.463426   -0.877570   -1.819484
C      -1.335526   -1.639811   -1.115323
O      -0.076774   -1.467677   -1.788899
C       0.605056   -0.414078   -1.274334
O       1.555325    0.089101   -1.799925
H       0.830883    1.695371   -0.285914
H       0.496742   -0.562228    0.845024
H      -1.914991   -0.746327    0.895910
H      -3.452327   -1.339462   -1.707231
H      -2.282266   -0.621017   -2.867214
H      -1.459053   -2.690376   -0.858051
