16

O      -0.002912    1.397328    0.030229
C      -0.034167    0.022383    0.089736
C       0.448261   -0.824638    1.309243
C      -0.403615   -1.931813    0.653722
C      -0.014879   -2.074082   -0.876896
N      -1.419346   -1.658411   -1.225732
C      -1.355378   -0.878112    0.037044
C       0.690009   -0.729298   -1.025313
O       1.486681   -0.284223   -1.808692
H       0.634832    1.631503   -0.660881
H       1.524544   -0.969647    1.442317
H      -0.003966   -0.485922    2.244938
H      -0.749872   -2.823279    1.168184
H       0.392876   -2.969352   -1.341594
H      -1.485376   -1.104029   -2.082258
H      -2.272217   -0.498430    0.485811
