19

C       0.038903    1.526168    0.306773
C      -0.048643    0.064318   -0.169091
C      -1.426595   -0.514158   -0.062633
C      -2.222160   -0.948115   -1.038569
C      -3.536259   -1.414912   -0.453145
O      -3.355622   -1.372284    0.945463
C      -2.142107   -0.693264    1.256145
C      -4.668973   -0.495006   -0.917188
O      -5.211058    0.324709   -0.228406
H       1.059508    1.903920    0.196580
H      -0.627725    2.167680   -0.277338
H      -0.240519    1.624245    1.360131
H       0.291823   -0.004963   -1.207585
H       0.644686   -0.543864    0.428309
H      -2.005761   -0.951671   -2.099157
H      -3.798293   -2.441023   -0.764157
H      -1.563258   -1.300031    1.968270
H      -2.358617    0.269157    1.744313
H      -4.942970   -0.639250   -1.990438
