22

C       0.034303    1.443011   -0.261021
C       0.005862   -0.047234    0.113059
C       0.776638   -0.319893    1.413593
C      -1.418409   -0.568861    0.159785
C      -2.421838   -0.059041    1.190442
O      -3.519624   -0.968980    1.146120
C      -3.008975   -2.255934    0.805172
C      -1.821016   -1.978587   -0.094911
N      -2.019193   -0.953023   -1.129792
H       1.063330    1.791008   -0.396419
H      -0.509932    1.618657   -1.193603
H      -0.420468    2.061637    0.521692
H       0.495702   -0.600952   -0.696774
H       0.748486   -1.381337    1.680648
H       1.826026   -0.028545    1.303788
H       0.367946    0.249268    2.255708
H      -1.965842   -0.036472    2.192298
H      -2.819319    0.937773    0.971512
H      -2.684504   -2.815058    1.698302
H      -3.821495   -2.812500    0.325514
H      -1.117765   -2.773368   -0.323780
H      -3.002080   -0.682736   -1.154773
