18

O      -0.636958    0.993728    0.924223
C       0.014844    1.007128   -0.087289
C       1.356040    1.691377   -0.242666
C       1.313557    2.777789   -1.317492
C       0.530256    4.088356   -1.023977
C       1.687082    4.899597   -1.698367
C       2.591189    3.628766   -1.554439
C       1.416714    5.269436   -3.079511
N       1.199937    5.550485   -4.180251
H      -0.353831    0.506708   -1.013778
H       1.653213    2.102986    0.727158
H       2.091516    0.927953   -0.535443
H       0.974844    2.348321   -2.266814
H      -0.466594    4.198017   -1.452351
H       0.485076    4.306589    0.046185
H       2.024681    5.786030   -1.157003
H       3.206218    3.702700   -0.653764
H       3.226438    3.371699   -2.402953
