18

O       0.227879    1.354785   -0.007995
C       0.216093   -0.030964    0.185393
C       0.163231   -0.601499    1.657095
C      -1.177295   -1.242979    1.303416
N      -2.052470   -0.116768    0.877204
C      -1.121397   -0.746381   -0.099391
C      -1.606750   -1.298813   -1.408631
C      -2.009565   -0.190813   -2.372941
O      -3.011237   -0.209511   -3.039368
H      -0.586222    1.676773    0.404140
H       1.051550   -0.444389   -0.385240
H       0.960633   -1.321148    1.854802
H       0.131476    0.147985    2.451460
H      -1.611358   -2.157542    1.688411
H      -2.983133   -0.492654    0.697351
H      -0.794503   -1.867543   -1.885350
H      -2.456758   -1.978053   -1.283779
H      -1.295534    0.660531   -2.418011
