17

C      -0.269340    1.601255    0.035388
C      -0.005756    0.115820   -0.076212
C       0.627908   -0.627287   -1.208742
C       1.515509    0.029887   -2.233791
O       1.742655    1.439781   -2.092885
C       2.710419    0.539354   -1.541480
C       2.535902    0.246630   -0.054849
N       1.296795   -0.548619    0.119750
H       0.485431    2.211970   -0.450771
H      -1.237136    1.832382   -0.422886
H      -0.336470    1.877741    1.094193
H      -0.779626   -0.459511    0.435182
H       0.235758   -1.600943   -1.496732
H       1.522708   -0.342528   -3.254193
H       3.701509    0.592054   -1.987329
H       3.375766   -0.363561    0.296040
H       2.517948    1.161585    0.547318
