19

C      -0.176095    1.561989    0.017208
C       0.013519    0.072185    0.018420
C       1.110167   -0.712220   -0.897656
C       0.736257   -1.847586    0.119882
C       1.122869   -2.745806    1.327970
O       0.465072   -1.764578    2.218372
C       0.725959   -0.774820    1.156389
C      -0.770053   -1.986945   -0.199067
O      -1.183534   -0.608150   -0.290428
H       0.751870    2.069862    0.292218
H      -0.483266    1.908413   -0.974319
H      -0.956577    1.840459    0.731600
H       0.813029   -0.831838   -1.942631
H       2.126917   -0.331225   -0.814271
H       0.661799   -3.734294    1.405558
H       2.196171   -2.801561    1.540696
H       1.710620   -0.333642    1.353332
H      -0.942992   -2.491352   -1.157050
H      -1.336484   -2.488696    0.589757
