16

C      -0.157617    1.456459    0.131694
N       1.352937    1.300400   -0.048181
C       2.142764    0.303872    0.736237
C       1.373025   -1.146894    1.148525
O       2.096007   -1.802530    0.084420
C       2.382647   -0.553608   -0.517831
C       1.129431    0.193572   -1.058645
C      -0.153124   -0.033802   -0.235861
C      -0.042266   -0.831606    0.858466
H      -0.517355    1.732061    1.124679
H      -0.491757    2.176515   -0.620840
H       2.879454    0.691693    1.434894
H       1.597931   -1.593574    2.119186
H       3.281300   -0.547974   -1.135207
H       1.030719    0.486303   -2.105148
H      -0.682570   -0.633573    1.716608
