19

O       0.065355    0.946743    0.565712
C       0.079421   -0.335325    0.046495
C      -1.169423   -1.153919   -0.120552
C      -2.517980   -0.618811    0.316326
O      -2.668343    0.785949    0.147547
C      -3.079396    1.198557   -1.150834
C      -2.006980    1.184578   -2.204833
C      -0.932292    0.395040   -2.281544
C      -0.447438   -0.659325   -1.369099
H      -0.844475    1.275661    0.505922
H       0.991802   -0.847799    0.336902
H      -1.078441   -2.221081    0.074013
H      -3.330497   -1.143119   -0.209983
H      -2.645996   -0.800691    1.389807
H      -3.941734    0.584498   -1.464848
H      -3.452429    2.221076   -1.025344
H      -2.160399    1.912789   -2.998731
H      -0.277603    0.553594   -3.136776
H       0.135544   -1.419841   -1.882113
