23

C       0.068661    1.597504   -0.010934
C       0.222344    0.075622   -0.082066
C       0.449764   -0.559143    1.297581
C       0.657952   -2.065650    1.264107
C      -0.544389   -2.886218    0.833978
C       2.022509   -2.584067    0.902190
C       1.540391   -2.701694    2.344115
C       2.151511   -1.930067    3.385144
C       2.661873   -1.295500    4.271748
H       0.961623    2.066047    0.417537
H      -0.091012    2.029521   -1.003824
H      -0.783993    1.880839    0.616285
H      -0.670719   -0.355639   -0.550418
H       1.064064   -0.179894   -0.738534
H       1.318670   -0.088294    1.770487
H      -0.406445   -0.330879    1.947853
H      -0.838190   -2.654221   -0.195281
H      -0.332036   -3.958988    0.879427
H      -1.407130   -2.687402    1.480227
H       2.103419   -3.502200    0.329832
H       2.809115   -1.862277    0.711601
H       1.233805   -3.697642    2.652966
H       3.112401   -0.735433    5.052864
