19

C       0.326175    1.678483   -0.067058
C       0.154503    0.173387    0.073007
C       0.935183   -0.772000   -0.857467
O       1.178379   -0.747015   -2.031283
C       1.361509   -1.685637    0.293749
C       2.764155   -1.267467    0.843043
C       2.091335   -0.276336    1.838058
C       0.691253   -0.666740    1.285131
O      -0.261313   -1.131932    2.197053
H       1.371954    1.979320    0.048578
H       0.001785    2.000691   -1.061070
H      -0.267526    2.223891    0.674156
H      -0.905251   -0.104991   -0.021802
H       1.120555   -2.747040    0.243713
H       3.285546   -2.090020    1.334926
H       3.434564   -0.830175    0.099972
H       2.198785   -0.586696    2.879696
H       2.378510    0.774708    1.754000
H      -0.553677   -0.389677    2.737946
