20

C      -0.002426    1.584459    0.032071
C       0.106480    0.074880    0.093147
C       1.367970   -0.715048   -0.233282
C       2.557534   -0.046770    0.351245
C       1.975636   -0.010769    1.758351
C       0.730911   -0.732755    1.191403
C       0.033206   -1.857320    1.899924
N       3.687996    0.203585   -0.165449
O       4.559858    0.764325    0.794815
H       0.906759    2.080314    0.380085
H      -0.179049    1.913012   -0.997543
H      -0.838101    1.941914    0.644033
H      -0.768420   -0.430376   -0.315322
H       1.384178   -1.475438   -1.004727
H       2.562338   -0.640815    2.434350
H       1.829984    0.964594    2.231166
H      -0.533399   -1.488206    2.763811
H      -0.673519   -2.366383    1.236486
H       0.747244   -2.602678    2.268167
H       5.367785    0.881976    0.284612
