18

O      -0.179903    1.014657   -1.082738
C      -0.033021    0.160277    0.036638
C      -1.293949   -0.643550    0.262371
N      -1.531006   -1.726783   -0.712731
C      -1.351625   -2.061628    0.710206
C      -0.150325   -2.908240    1.046432
O      -0.457283   -4.294728    0.840357
C      -0.192839   -4.808091   -0.380551
O      -0.483544   -5.926563   -0.679881
H      -0.387624    0.444996   -1.832785
H       0.833923   -0.504646   -0.082379
H       0.160188    0.809365    0.897234
H      -2.153558   -0.030646    0.529055
H      -2.511713   -1.777908   -0.972442
H      -2.241174   -2.348748    1.268233
H       0.715625   -2.621956    0.442031
H       0.114102   -2.817321    2.103208
H       0.320743   -4.090373   -1.046458
