16

N      -0.038473    1.488869    0.029982
C       1.434916    1.497866   -0.031504
C       2.070722    0.790797    1.240044
O       1.019939    0.399638    2.118714
C       0.414894   -0.637969    1.348793
O       1.486959   -1.508618    1.042874
C       2.302199   -0.535744    0.400271
C       1.432705    0.097006   -0.701891
C       0.018250    0.003390   -0.030396
H      -0.410877    1.836383    0.913493
H       1.916661    2.397691   -0.416420
H       2.872711    1.270112    1.798141
H      -0.354422   -1.140833    1.931542
H       3.302157   -0.914760    0.207032
H       1.546485   -0.113037   -1.762197
H      -0.813066   -0.495830   -0.530501
