19

C      -0.008426    1.455940   -0.012619
C      -0.016118   -0.000123   -0.000319
C      -0.016478   -1.204408    0.026282
C      -0.052288   -2.664131    0.022152
C      -1.515250   -3.171093   -0.074987
O      -1.665715   -4.520237    0.302072
C       0.846177   -3.195436   -1.135635
C       0.938979   -4.649649   -1.226019
C       1.024746   -5.847112   -1.313418
H       0.863667    1.844915   -0.549705
H      -0.903638    1.854784   -0.502269
H       0.021129    1.861491    1.004667
H       0.348039   -3.046298    0.969777
H      -2.130813   -2.587833    0.615272
H      -1.892027   -2.976607   -1.092863
H      -1.118636   -5.058021   -0.283072
H       0.460708   -2.794782   -2.081345
H       1.852494   -2.779577   -1.014410
H       1.115710   -6.902731   -1.389571
