15

C      -0.051240    1.513742   -0.010010
C      -0.000008    0.008222    0.008986
C       0.003737   -0.741323   -1.160444
N       0.048276   -2.081203   -1.196359
C       0.091634   -2.744638   -0.056671
O       0.136823   -4.091419   -0.079992
C       0.092279   -2.085599    1.182280
F       0.137220   -2.799213    2.307810
C       0.046480   -0.711114    1.213936
H       0.824520    1.952632    0.481111
H      -0.081722    1.891007   -1.035557
H      -0.937200    1.893056    0.511513
H      -0.030812   -0.244566   -2.126789
H       0.127795   -4.337387   -1.015663
H       0.047297   -0.208430    2.175672
