16

O      -0.048088    1.448553   -0.072356
C      -0.000542    0.053972   -0.068936
C       0.471843   -0.685345    1.248172
C      -0.914656   -1.333095    1.309728
C      -1.325141   -2.648504    1.913887
C      -1.147842   -2.673025    3.368345
N      -0.993955   -2.687886    4.512854
O      -1.866440   -0.258021    1.348768
C      -1.352112   -0.674282    0.067642
H      -0.658176    1.700934    0.633011
H       0.573449   -0.256953   -0.944661
H       1.283987   -1.392824    1.063895
H       0.724059   -0.043102    2.094468
H      -2.376096   -2.844059    1.678000
H      -0.729987   -3.460146    1.479300
H      -2.079523   -0.961599   -0.683733
