17

N       0.130053    1.408317   -0.169405
C      -0.011156   -0.053624   -0.030077
C       0.617509   -0.582120    1.195829
C       1.150367   -0.959145    2.204993
C      -1.463773   -0.353553    0.030638
N      -2.592584   -0.593738    0.069867
C       0.559081   -0.697848   -1.301163
C       2.023539   -1.040996   -1.409196
C       0.987213   -2.135884   -1.348023
H      -0.198951    1.866381    0.676320
H       1.121217    1.617817   -0.254751
H       1.610538   -1.296861    3.101400
H       0.081205   -0.287279   -2.183759
H       2.516321   -0.837012   -2.352845
H       2.646291   -0.903055   -0.532418
H       0.929638   -2.709773   -0.430155
H       0.762097   -2.696506   -2.247572
