18

N       0.323532   -1.136248    0.339337
C       0.195015    0.000546    0.169566
C       0.037108    1.430804   -0.009370
C      -0.408250    2.264125    1.238362
C       0.838979    3.181731    1.086340
C       1.929652    3.035977    2.153985
C       2.612659    1.717118    1.758866
O       2.545015    1.671536    0.329702
C       1.361169    2.293958   -0.087510
H      -0.600564    1.612895   -0.878488
H      -1.372823    2.758977    1.116500
H      -0.429606    1.687102    2.165359
H       0.610595    4.219800    0.843930
H       2.639974    3.865071    2.081378
H       1.531404    3.014893    3.172173
H       3.666959    1.662435    2.038977
H       2.096002    0.849378    2.192158
H       1.536513    2.741208   -1.067712
