21

C      -0.027225    1.558662    0.028579
C       0.004713    0.027995   -0.003595
O      -1.331060   -0.488949   -0.035702
C       0.667280   -0.494941   -1.288596
C       0.695323   -2.027672   -1.337091
C       1.390329   -2.626409   -0.098362
C       0.820045   -2.059509    1.192339
O       0.465896   -2.749288    2.119158
C       0.740175   -0.537663    1.232930
H       0.981274    1.982716   -0.012078
H      -0.600488    1.938648   -0.821878
H      -0.503237    1.917352    0.948553
H      -1.756176   -0.280712    0.803261
H       0.116359   -0.102515   -2.149764
H       1.686286   -0.091950   -1.346197
H      -0.332875   -2.397454   -1.385942
H       1.205026   -2.366316   -2.244841
H       1.311922   -3.715546   -0.067574
H       2.459320   -2.367635   -0.124616
H       1.761807   -0.135433    1.260720
H       0.240833   -0.236502    2.159935
