17

C      -0.042299    1.559733    0.016133
C      -0.074382    0.054758    0.006306
C       0.392116   -0.756718   -1.240081
C      -0.550960   -1.853698   -0.757258
C      -0.487492   -1.864975    0.778481
C       0.493076   -0.774767    1.197727
C      -1.367361   -0.877000    0.052875
H       0.990829    1.926390   -0.023791
H      -0.575825    1.977167   -0.845049
H      -0.502790    1.964049    0.924434
H       0.031795   -0.302589   -2.168611
H       1.464384   -0.972032   -1.328782
H      -0.908555   -2.717563   -1.302942
H      -0.799393   -2.736934    1.339117
H       1.568862   -0.990797    1.194241
H       0.211110   -0.334587    2.159477
H      -2.428275   -0.677140    0.098187
