16

N       0.084340    1.396132    0.026073
C      -0.078211    0.029295    0.011363
C      -1.151294   -0.801907    0.079821
C      -2.640384   -0.949020    0.179305
C      -2.804098   -2.476072   -0.128138
N      -1.498027   -3.084041    0.220171
C      -0.551307   -2.083608    0.097254
N       0.754273   -2.096888    0.029991
O       1.063871   -0.689117   -0.026712
H       0.965587    1.702056   -0.363195
H      -0.699785    1.914873   -0.340495
H      -3.012937   -0.717708    1.185133
H      -3.218178   -0.345828   -0.527589
H      -3.607681   -2.933912    0.454701
H      -3.033918   -2.615139   -1.194200
H      -1.288215   -3.981791   -0.191604
