18

O       0.061432    1.501829    0.258899
C       0.069478    0.111473    0.492480
C      -1.253479   -0.545984    0.117272
C      -2.492481    0.233524    0.229757
O      -1.851966    0.046469   -1.049287
C      -1.268895   -2.044372    0.174337
C      -2.242561   -2.837411   -0.655400
C      -0.777152   -2.844297   -1.009558
H      -0.315181    1.612802   -0.624302
H       0.875677   -0.390558   -0.067139
H       0.269022   -0.039611    1.559613
H      -3.440130   -0.288365    0.342921
H      -2.450339    1.250166    0.611465
H      -1.026609   -2.440417    1.157388
H      -2.677514   -3.729229   -0.218889
H      -2.900440   -2.277783   -1.310267
H      -0.482888   -2.291569   -1.895055
H      -0.196652   -3.740116   -0.820611
