13

O       0.023576    1.423929    0.008174
C       0.006715    0.006163    0.002782
C      -1.373593   -0.460728    0.012767
C      -2.506106   -0.873099    0.020816
C      -3.831721   -1.334095    0.030278
C      -5.037498   -0.688444    0.042216
N      -6.006905   -1.655330    0.047025
N      -5.493347   -2.804361    0.039629
O      -4.074557   -2.654395    0.028751
H       0.945103    1.702457    0.001682
H       0.508914   -0.405613   -0.888072
H       0.524053   -0.412532    0.881663
H      -5.263182    0.363221    0.047206
