19

C      -0.212657    1.403937   -0.087506
C      -0.099848   -0.071553    0.124259
C      -1.043940   -0.977285    0.373399
C      -2.440079   -1.349004   -0.091538
O      -3.180512   -0.442092   -0.859764
C      -1.735680   -2.590981   -0.776745
C      -0.512325   -2.360970    0.178662
O       0.817398   -2.215952   -0.291058
C       1.200561   -0.846412   -0.080815
H       0.241023    1.710028   -1.038957
H      -1.258268    1.721676   -0.078324
H       0.312556    1.960426    0.699346
H      -3.104546   -1.673681    0.714484
H      -2.610336   -0.132766   -1.572524
H      -2.255916   -3.550390   -0.726444
H      -1.466625   -2.356238   -1.809898
H      -0.539466   -3.039254    1.041892
H       1.739523   -0.486814   -0.968767
H       1.894634   -0.774037    0.772875
