15

C       0.226842    1.455093    0.050475
N      -0.289363    0.122979   -0.257768
C       0.419204   -0.673715   -1.127285
C       0.680940   -2.011169   -1.156896
N       0.313966   -2.937029   -0.154738
N       1.361833   -2.302398   -2.341255
C       1.483795   -1.167369   -2.935098
O       0.924688   -0.113890   -2.260946
H       1.213703    1.442559    0.537263
H       0.307447    2.033527   -0.872190
H      -0.483418    1.961518    0.707807
H      -0.533889   -0.420110    0.561235
H      -0.381639   -3.594099   -0.498555
H       1.115305   -3.493225    0.129869
H       1.970259   -0.930702   -3.867199
