20

C      -0.047075    1.368097    0.076956
O      -0.026849   -0.041383   -0.083355
C       0.628911   -0.545555   -1.235280
C       0.000479   -0.065189   -2.554284
C       2.061585   -0.145187   -1.205648
N       3.158800    0.212749   -1.149193
C       0.563033   -2.090368   -1.077743
C      -0.863961   -2.627081   -0.996265
O       1.271444   -2.619302   -2.188513
H       0.965509    1.791042    0.063549
H      -0.653027    1.862875   -0.692417
H      -0.497991    1.554556    1.053559
H       0.210999    0.990693   -2.734870
H       0.409408   -0.646474   -3.382264
H      -1.082173   -0.206184   -2.514035
H       1.086131   -2.317839   -0.138154
H      -1.413214   -2.141968   -0.186838
H      -1.397119   -2.471827   -1.937934
H      -0.839542   -3.704034   -0.797648
H       1.403018   -3.560735   -2.044000
