23

C       0.024653    1.496752    0.224611
C      -0.093446    0.009812    0.088440
C       0.022219   -0.735116   -1.022667
C       0.298633   -0.276720   -2.422545
C      -0.180809   -2.206113   -0.744495
C       1.113229   -3.077045   -0.708937
C       1.170625   -2.884965    0.832538
C      -0.263696   -2.274765    0.813616
C      -0.412382   -0.829860    1.312795
H       0.827838    1.765444    0.923354
H       0.227841    1.995888   -0.725848
H      -0.897792    1.926012    0.638007
H       0.455705    0.802212   -2.493411
H       1.189049   -0.771146   -2.831445
H      -0.532672   -0.539057   -3.090416
H      -1.005212   -2.624101   -1.334947
H       0.924964   -4.114698   -0.998579
H       1.967878   -2.710278   -1.284619
H       1.300966   -3.793223    1.426006
H       1.927296   -2.160740    1.147956
H      -1.019353   -2.952549    1.215111
H       0.265321   -0.611815    2.150631
H      -1.425781   -0.610396    1.680892
