21

C       0.243196    1.701875   -0.034971
C       0.057025    0.192767    0.011958
C       0.871004   -0.708427   -0.963320
C       1.162075   -1.721167    0.200307
C       2.571981   -1.546763    0.834003
C       2.045211   -0.351181    1.678803
C       0.589010   -0.635057    1.209254
C       0.622247   -3.046569    0.061230
C       0.168052   -4.156606   -0.046898
H       1.296676    1.986929    0.055689
H      -0.123588    2.108344   -0.984123
H      -0.307568    2.196860    0.772785
H      -1.007504   -0.039053   -0.105814
H       0.314249   -1.120192   -1.806370
H       1.785022   -0.241918   -1.344716
H       2.846491   -2.405457    1.450364
H       3.384908   -1.347920    0.129755
H       2.196878   -0.460494    2.754385
H       2.436410    0.626258    1.386257
H      -0.120293   -0.895082    1.995836
H      -0.230833   -5.135596   -0.143693
