17

C      -0.424713    1.294976   -0.022662
C       0.035800   -0.146241   -0.094368
O       1.088188   -0.242338   -1.011310
C       1.168224   -1.473090   -1.695333
C       1.163674   -2.695303   -0.834705
C       1.035176   -2.791029    0.491228
C       0.906916   -1.737485    1.534005
O       1.179200   -1.981823    2.681767
O       0.467874   -0.490770    1.222754
H       0.423768    1.932802    0.236173
H      -0.821390    1.605342   -0.991966
H      -1.198793    1.406662    0.739165
H      -0.783545   -0.820029   -0.384881
H       0.351954   -1.563354   -2.434697
H       2.100132   -1.436712   -2.272922
H       1.286327   -3.620021   -1.397178
H       1.095078   -3.772049    0.950794
