15

C      -0.013740    1.483484    0.061192
O       1.324127    2.017241    0.049799
C       2.160501    1.417789   -0.822842
C       3.281374    1.833294   -1.480742
N       3.838474    0.763918   -2.167195
C       3.074156   -0.265684   -1.924599
N       2.020261    0.067517   -1.098987
C       0.970745   -0.676009   -0.558579
C      -0.027430   -0.023323    0.036457
H      -0.468920    1.873103    0.974549
H      -0.572390    1.895179   -0.795250
H       3.722990    2.815991   -1.494040
H       3.192619   -1.264587   -2.317072
H       1.052294   -1.752276   -0.640932
H      -0.854154   -0.553745    0.490646
