19

O       0.022514    1.494340    0.153310
C       0.096213    0.083295    0.203809
C      -1.286684   -0.542119    0.026835
O      -1.888408   -0.042208   -1.188074
C      -2.068054   -1.142394   -2.073306
C      -0.704287   -1.750113   -2.529992
C      -0.828385   -2.738715   -1.367156
C      -2.305889   -2.402582   -1.201476
C      -1.346732   -2.055974   -0.105869
H      -0.497092    1.697165   -0.634378
H       0.790213   -0.314285   -0.552040
H       0.494584   -0.183204    1.189690
H      -1.918716   -0.207876    0.861302
H      -2.787096   -0.856029   -2.839315
H      -0.804278   -2.267177   -3.489199
H       0.148402   -1.066259   -2.574145
H      -0.354738   -3.711482   -1.304883
H      -3.186538   -3.024016   -1.118030
H      -1.344143   -2.655908    0.796738
