18

C      -0.070649    1.479225    0.146943
C      -0.020655   -0.002349   -0.034407
C       0.002945   -0.788051   -1.178073
C      -0.015881   -0.317478   -2.602455
C       0.059099   -2.141727   -0.752674
C       0.069054   -2.162097    0.631396
N       0.020617   -0.844474    1.046280
C       0.113306   -3.229380    1.547212
C       0.151380   -4.132378    2.346041
H       0.843185    1.869102    0.613217
H      -0.183349    1.979237   -0.816877
H      -0.914763    1.785700    0.777118
H       0.933664   -0.522472   -3.111473
H      -0.801823   -0.818729   -3.178387
H      -0.195892    0.758801   -2.673976
H       0.087113   -3.016319   -1.384566
H       0.009467   -0.559110    2.010478
H       0.184879   -4.935404    3.039250
