15

O       0.219785    1.280766   -0.198097
C       0.093655   -0.059787    0.034101
C      -0.487404   -0.631681    1.256247
O      -0.966341    0.113350    2.296654
C      -1.344494   -0.773187   -0.100496
C      -2.456412    0.160064   -0.192457
O      -2.448323    1.274116    0.332667
C      -1.437475   -2.043962   -0.739349
C      -1.490176   -3.123441   -1.269531
H      -0.593708    1.724048    0.097429
H       0.866440   -0.630219   -0.470391
H      -0.112729   -1.593939    1.589081
H      -1.467285    0.864228    1.934937
H      -3.335426   -0.177530   -0.768292
H      -1.545651   -4.073636   -1.740531
