18

C       0.039605   -1.141424   -0.018053
C       0.011174    0.060440   -0.033725
C      -0.077526    1.491823   -0.043168
C      -1.290771    2.163904    0.614933
C      -1.463846    3.488488   -0.171601
C      -0.079033    3.709716   -0.789859
C       1.009739    3.638111    0.309691
N       1.269063    2.181740    0.035395
C       0.416699    2.299472   -1.191458
H       0.081442   -2.202164   -0.003580
H      -2.164328    1.513096    0.537011
H      -1.111482    2.330986    1.681956
H      -2.218356    3.374189   -0.957601
H      -1.770343    4.322274    0.468423
H      -0.012160    4.520938   -1.514240
H       1.920662    4.186751    0.059830
H       0.718123    3.878441    1.338274
H       0.712223    1.911255   -2.159006
