18

C      -0.687088    1.308722    0.098106
C       0.032315   -0.025856   -0.037434
C       1.039514   -0.209961   -1.219079
N       2.068119   -0.509621   -0.213866
C       3.420433   -0.740883   -0.423256
N       4.115207   -1.081585    0.724033
O       3.926890   -0.622641   -1.518757
C       1.229699   -0.245878    0.886734
N       1.363383   -0.145599    2.138140
H       0.014089    2.145014    0.013124
H      -1.451275    1.422397   -0.677089
H      -1.173217    1.377886    1.075012
H      -0.676382   -0.856857    0.026873
H       0.846966   -1.035838   -1.907625
H       1.249850    0.700907   -1.786078
H       3.622893   -1.616967    1.423994
H       5.053195   -1.401643    0.532205
H       2.329038   -0.265228    2.443800
