20

C       0.346619    1.428448   -0.128863
C       0.032583   -0.062057   -0.064729
C      -1.468755   -0.303138   -0.199009
C       0.893067   -0.971273   -1.002021
C       1.382692   -1.695068    0.272035
C       2.643468   -1.118365    0.936366
O       3.819879   -1.272502    0.798890
C       1.740149   -0.267587    1.850444
N       0.528540   -0.816888    1.167583
H       1.419957    1.636820   -0.154558
H      -0.087113    1.854629   -1.039480
H      -0.088092    1.958779    0.725983
H      -1.837066    0.053779   -1.167533
H      -1.697323   -1.368881   -0.111458
H      -2.011989    0.220437    0.594296
H       0.316051   -1.600659   -1.682707
H       1.672293   -0.462159   -1.574451
H       1.257853   -2.780129    0.328632
H       1.783348   -0.584756    2.899368
H       1.886260    0.815362    1.818812
