13

O      -0.042627    1.445902   -0.056539
C       0.010856    0.041050   -0.000108
C       0.178986   -0.566758    1.430976
N      -1.286309   -0.750280    1.504907
C      -1.429230   -0.540135    0.046926
C       0.909993   -0.497133   -1.027242
N       1.641611   -0.908395   -1.822372
H       0.849072    1.794690    0.058415
H       0.772077   -1.489640    1.428527
H       0.588397    0.128697    2.171657
H      -1.583826   -1.659975    1.835389
H      -2.198367    0.183624   -0.237426
H      -1.535803   -1.450306   -0.554464
