14

C      -0.089664   -1.053258   -0.735591
C      -0.028643    0.010791   -0.179722
C       0.070253    1.326978    0.447897
C       1.421842    1.963247    0.278034
C       2.138651    2.838974    1.052609
N       3.322099    3.181740    0.438747
C       3.326047    2.519582   -0.694574
N       2.195626    1.772100   -0.845411
H      -0.158486   -2.005654   -1.200658
H      -0.715605    1.973473    0.030237
H      -0.147860    1.247320    1.519010
H       1.866852    3.241712    2.017122
H       4.109503    2.534762   -1.437416
H       1.979425    1.128578   -1.589732
