16

C      -0.004004    1.573734    0.010312
C       0.010094    0.044317    0.001939
C      -1.414661   -0.549425    0.012974
C      -1.426155   -2.005229    0.005379
C      -1.408836   -3.206920   -0.001418
C      -1.393488   -4.663582   -0.009694
F      -2.636007   -5.169532   -0.001210
F      -0.773601   -5.143308   -1.098676
F      -0.754112   -5.155298    1.062561
H       1.013897    1.973777    0.002281
H      -0.525675    1.972168   -0.866773
H      -0.507977    1.962648    0.901899
H       0.539950   -0.324869   -0.882770
H       0.557481   -0.334307    0.871858
H      -1.957248   -0.191956    0.897895
H      -1.974714   -0.182577   -0.857105
