17

C       0.026879    1.580594   -0.053077
C       1.589452    1.402424    0.051761
C       1.277167    0.016922    0.569392
C       1.444430   -0.832986    1.576211
C       0.173857   -1.666271    1.742552
C      -0.922557   -0.797426    1.038618
C      -0.118631    0.016338    0.005877
H      -0.379632    2.058226    0.842258
H      -0.352931    2.089217   -0.942590
H       2.053582    1.402647   -0.940572
H       2.149658    2.079147    0.701475
H       2.292103   -0.904424    2.248108
H       0.263806   -2.655731    1.271298
H      -0.061457   -1.850399    2.796693
H      -1.727418   -1.398853    0.605913
H      -1.373885   -0.124388    1.776897
H      -0.190067   -0.397230   -1.008152
