23

C      -0.051284    1.540287    0.163821
C      -0.079393    0.023436    0.083593
O       0.692240   -0.498939    1.146303
C       0.741555   -1.909674    1.163901
C       1.556110   -2.321521    2.376221
C       0.828404   -2.163229    3.725781
O       0.705394   -3.593821    3.876959
C       1.581707   -3.830079    2.748998
C       1.048688   -4.891572    1.806146
H       0.974948    1.909782    0.083202
H      -0.642657    1.976319   -0.646817
H      -0.463842    1.881654    1.117489
H      -1.115995   -0.349199    0.147800
H       0.324651   -0.320724   -0.883858
H      -0.278603   -2.325490    1.219476
H       1.198449   -2.292689    0.234916
H       2.538239   -1.847087    2.318923
H       1.431844   -1.716781    4.526765
H      -0.146618   -1.664084    3.692857
H       2.578841   -4.132023    3.104459
H       0.059707   -4.633077    1.418987
H       1.732146   -5.039269    0.962976
H       0.962060   -5.843093    2.340381
