19

O       0.205868    1.369609    0.150077
C       0.094679   -0.030127   -0.003510
C       0.166706   -0.444584   -1.523346
C      -1.431101   -0.377875   -1.501158
C      -1.300987   -0.641761    0.015542
C      -1.420683   -0.230415    1.504444
C       0.137752   -0.655880    1.446065
C      -0.007229   -2.133074    1.146227
O      -1.014280   -2.064331    0.114225
H      -0.058368    1.796057   -0.671969
H       0.692736    0.264322   -2.169593
H       0.524395   -1.451624   -1.724568
H      -1.795326    0.626190   -1.733425
H      -1.986044   -1.110006   -2.090031
H      -1.535899    0.837294    1.666938
H      -2.074383   -0.818777    2.152633
H       0.854623   -0.331949    2.200446
H       0.905066   -2.599819    0.755215
H      -0.371376   -2.721705    1.996871
