17

O      -0.097019    1.456153   -0.043722
C       0.014248    0.044644    0.011801
C      -1.403496   -0.515386    0.106776
C      -1.402600   -2.051030    0.192018
C      -0.630565   -2.703061   -0.942846
O      -0.996275   -3.683052   -1.539835
C       0.726408   -2.028463   -1.293761
O       1.682618   -2.699542   -1.587732
C       0.736209   -0.510926   -1.231989
H       0.789291    1.831444   -0.065703
H       0.575283   -0.259396    0.911996
H      -1.900321   -0.088957    0.982671
H      -1.968159   -0.182323   -0.772417
H      -0.908994   -2.361254    1.125850
H      -2.412946   -2.466486    0.209267
H       0.197210   -0.137595   -2.115189
H       1.772212   -0.164193   -1.300883
