15

C      -0.129239   -1.235507   -0.071369
C      -0.069561   -0.037851    0.028237
C      -0.008941    1.393187    0.070633
C       0.512752    2.155393    1.264033
C       1.294280    1.393101    2.274051
C       2.403323    0.909443    1.715848
C       2.490432    1.324399    0.264967
N       1.277274    2.136554    0.001182
H      -0.191770   -2.293247   -0.141196
H      -0.779963    1.884146   -0.520032
H       0.013964    3.082095    1.538294
H       0.970361    1.258414    3.297791
H       3.140191    0.277799    2.197413
H       3.373378    1.942803    0.059603
H       2.530358    0.464280   -0.414843
