18

O      -0.374663    1.375170   -0.259532
C      -0.069274   -0.006748   -0.167286
C      -1.383456   -0.748597    0.047490
C      -1.194004   -2.244798    0.257846
O      -2.414229   -2.920213    0.472575
C      -2.809245   -3.503558   -0.758479
C      -1.531540   -3.577131   -1.565250
N      -1.369867   -4.195685   -2.649828
O      -0.591179   -2.849501   -0.896642
H       0.439108    1.850819   -0.449775
H       0.418864   -0.376304   -1.080481
H       0.613646   -0.210027    0.674959
H      -1.885619   -0.344720    0.932939
H      -2.044182   -0.580478   -0.810243
H      -0.538497   -2.447762    1.113267
H      -3.229762   -4.494590   -0.574353
H      -3.560342   -2.895498   -1.281692
H      -0.419512   -4.077174   -3.002863
