19

C       0.008097    1.550307    0.017331
C       0.012931    0.010859    0.061617
C       0.744405   -0.502223    1.315011
C      -1.382202   -0.536975   -0.012179
C      -1.988713   -1.274910   -0.982937
N      -1.635746   -1.722986   -2.248432
O      -3.272962   -1.531414   -0.599571
C      -3.385000   -0.922709    0.616483
N      -2.318139   -0.320574    1.006620
H       1.027808    1.946227    0.070312
H      -0.456722    1.918209   -0.902399
H      -0.559951    1.949318    0.863149
H       0.559207   -0.350090   -0.822012
H       0.205289   -0.197916    2.216814
H       0.809091   -1.594708    1.316678
H       1.760456   -0.097268    1.366872
H      -0.640860   -1.646935   -2.412804
H      -1.948153   -2.669523   -2.431916
H      -4.336312   -1.017453    1.114387
