19

C      -0.230677    0.409431    0.894174
C       0.433282   -0.797761    0.228889
C       0.490288   -0.642503   -1.307251
O       1.160011    0.535401   -1.674216
C       1.180573   -1.841419   -1.947876
O       2.213213   -1.686309   -2.561208
C       0.599937   -3.250583   -1.766821
C      -0.852551   -3.337347   -1.728653
C      -2.051498   -3.413047   -1.706012
H       0.294954    1.328550    0.625668
H      -1.273955    0.509576    0.575155
H      -0.220556    0.307934    1.983447
H       1.458999   -0.912714    0.601457
H      -0.115374   -1.712912    0.478723
H      -0.543392   -0.615129   -1.687105
H       1.947650    0.244639   -2.160780
H       1.014635   -3.867450   -2.570179
H       1.020691   -3.641599   -0.828957
H      -3.111396   -3.480077   -1.688213
