17

C      -0.362765    1.598679   -0.040866
C       0.030569    0.125029    0.014298
C      -1.176680   -0.785704   -0.216963
C       1.251748   -0.269991   -0.891059
C       1.920268   -0.879290    0.348587
O       2.873228   -1.584110    0.514905
C       0.853728   -0.294792    1.284397
H       0.502825    2.249250    0.124921
H      -0.792221    1.856147   -1.015685
H      -1.110554    1.836311    0.724208
H      -1.627848   -0.598210   -1.197651
H      -0.894092   -1.843556   -0.177321
H      -1.946568   -0.618071    0.544370
H       1.065239   -0.956988   -1.721521
H       1.813746    0.589724   -1.272820
H       1.240702    0.554016    1.859260
H       0.388070   -0.999183    1.979676
