18

C      -0.429629    1.248349    0.170119
C       0.060624   -0.187609    0.048140
C       0.980622   -0.575481   -1.142876
O       2.038114   -0.950184   -0.204589
C       1.264410   -0.579454    0.881499
N       1.533635   -0.560987    2.104072
C       0.543187   -1.718777   -2.015809
C       1.338368   -2.944632   -2.154854
O       0.159153   -2.914158   -1.343487
H       0.387130    1.961785    0.021823
H      -1.210550    1.461312   -0.566711
H      -0.845350    1.418745    1.166884
H      -0.758188   -0.901145    0.172973
H       1.306802    0.271402   -1.757249
H       2.482603   -0.892055    2.285803
H      -0.115099   -1.424534   -2.835802
H       1.262364   -3.532989   -3.067615
H       2.271423   -3.027915   -1.604065
