23

C      -0.056611    1.382189    0.010451
O      -0.022135   -0.023777    0.004980
C       0.686067   -0.563366    1.101368
C       0.644947   -2.084163    1.019534
C       1.483406   -2.734181    2.131861
C       1.327461   -4.260536    2.097823
C      -0.155522   -4.639786    2.094417
O      -0.852338   -4.024367    1.025666
C      -0.795978   -2.610134    1.089657
H       0.955117    1.816271   -0.036022
H      -0.617569    1.700429   -0.871673
H      -0.555375    1.776478    0.910444
H       1.732252   -0.210288    1.094486
H       0.238563   -0.219152    2.051781
H       1.057353   -2.379670    0.045805
H       2.537610   -2.449305    2.036900
H       1.142612   -2.357170    3.107435
H       1.796278   -4.661347    1.190895
H       1.827115   -4.724052    2.956287
H      -0.290220   -5.718158    1.967432
H      -0.614906   -4.353760    3.058038
H      -1.268250   -2.253785    2.024404
H      -1.384333   -2.234634    0.250562
