13

C       0.039441    1.479645    0.015281
C      -0.103460    0.001579    0.048802
C      -1.140897   -0.854477   -0.157424
C      -0.540184   -2.118361    0.042008
N       0.732367   -2.059800    0.340069
O       1.010686   -0.711612    0.344531
N      -1.207407   -3.412995   -0.056793
O      -2.398844   -3.368008   -0.340381
O      -0.548920   -4.416351    0.144435
H       0.779011    1.782013   -0.732796
H      -0.917372    1.942250   -0.231508
H       0.373605    1.860235    0.985590
H      -2.164262   -0.642300   -0.408904
