23

C      -0.227761    1.580437    0.090466
C       0.163306    0.100387   -0.074841
C       0.852056   -0.443217    1.092079
C       1.421392   -0.861754    2.068216
C       2.099292   -1.396594    3.244419
C       2.071344   -2.941343    3.329642
C       2.796460   -3.596654    2.150621
C       2.660423   -3.389247    4.667436
O       2.507486   -4.796415    4.775610
H       0.658020    2.199693    0.256374
H      -0.739801    1.943479   -0.805860
H      -0.895325    1.712392    0.946366
H      -0.737223   -0.493826   -0.277493
H       0.800954   -0.011126   -0.961483
H       3.145083   -1.056724    3.251882
H       1.638683   -0.976357    4.148996
H       1.021539   -3.260070    3.316647
H       3.848600   -3.286068    2.121177
H       2.768363   -4.684171    2.243736
H       2.335599   -3.308974    1.202128
H       3.724287   -3.099525    4.715298
H       2.142420   -2.872556    5.492123
H       2.933391   -5.084712    5.587714
