21

C      -0.307906    1.435198   -0.016926
C       0.030633   -0.052582    0.000649
O       0.800926   -0.316154   -1.174935
C       0.694343   -1.612138   -1.701595
C       1.202697   -2.761061   -0.861816
C       1.323537   -4.046168   -1.639673
C       1.546433   -2.705294    0.437457
C       1.449932   -1.602557    1.387062
C       0.782318   -0.450415    1.246790
H       0.610626    2.029893    0.000135
H      -0.866709    1.689138   -0.920692
H      -0.910068    1.702370    0.856887
H      -0.905644   -0.634123   -0.056238
H      -0.346363   -1.834680   -2.007054
H       1.277882   -1.584583   -2.632199
H       2.048620   -3.952448   -2.458807
H       1.636471   -4.875606   -1.001465
H       0.366589   -4.319084   -2.104837
H       1.939693   -3.625271    0.867319
H       1.956324   -1.777316    2.333972
H       0.788303    0.265664    2.064675
