20

C      -0.410356    1.393633    0.141534
C      -0.060246   -0.095484    0.089095
C       0.622493   -0.500492   -1.214891
C       0.827622   -2.032652   -1.443474
O       0.488488   -2.803485   -0.320374
C      -0.207017   -1.950873   -2.606307
N      -0.244423   -0.498576   -2.413004
C      -0.447263    0.437714   -3.371049
O      -0.914170    0.207165   -4.468160
H       0.482386    2.019982    0.032142
H      -1.110143    1.664977   -0.655484
H      -0.881180    1.649721    1.095144
H       0.614923   -0.355601    0.912397
H      -0.960175   -0.702629    0.225979
H       1.536130    0.090432   -1.357048
H       1.837972   -2.265924   -1.800511
H       0.646742   -3.730084   -0.525021
H       0.132831   -2.246555   -3.603026
H      -1.156331   -2.447953   -2.379511
H      -0.144239    1.450623   -3.036250
