17

C       0.014835    1.457537   -0.166774
C      -0.022484   -0.024887    0.005318
O       0.520569   -0.893449   -1.063108
C       0.041151   -1.849385   -0.055136
C       0.570966   -0.960114    1.096350
O      -0.277916   -1.019418    2.221615
C      -1.597656   -1.058054    1.637609
C      -1.254896   -0.999333    0.161002
O      -2.297449   -0.998027   -0.735950
H       1.031469    1.797592   -0.385697
H      -0.642024    1.772084   -0.984384
H      -0.322383    1.946541    0.752637
H       0.165111   -2.913198   -0.254827
H       1.623909   -0.935390    1.365377
H      -2.113290   -1.981320    1.924894
H      -2.189217   -0.199557    1.975399
H      -1.893443   -0.972676   -1.615013
