19

O       0.043798    1.402451   -0.193571
C       0.061901    0.025089    0.131065
C      -1.346184   -0.539313    0.111981
C      -2.297134   -0.090909    1.217532
C      -3.334448   -1.223115    1.230344
O      -2.605780   -2.412622    0.906360
C      -1.588292   -2.068885   -0.005071
C      -2.037530   -1.751508   -1.446966
O      -1.926055   -0.326378   -1.214819
H      -0.440271    1.466155   -1.026752
H       0.693470   -0.543073   -0.571142
H       0.503388   -0.067161    1.128996
H      -1.759556   -0.047027    2.170290
H      -2.727821    0.890645    1.012421
H      -3.809113   -1.383302    2.200989
H      -4.120294   -1.036248    0.485019
H      -0.758545   -2.767078    0.118262
H      -1.350209   -2.091804   -2.231113
H      -3.059793   -2.054957   -1.696973
