19

C       0.012309    1.481024   -0.048560
C      -0.029389   -0.022075    0.049072
C      -0.869253   -0.690595    1.099834
C       0.651195   -0.730944    1.206074
C       1.372157   -2.004655    0.879925
O       0.618153   -3.216267    0.774265
C       1.142997   -2.637845   -0.429850
C       0.142198   -1.978864   -1.363087
O       0.102777   -0.561764   -1.239818
H       0.941100    1.806323   -0.527476
H      -0.826515    1.850533   -0.647078
H      -0.045495    1.934351    0.944592
H      -1.407587   -0.058508    1.797040
H      -1.353001   -1.635093    0.884193
H       1.122609   -0.117514    1.966377
H       2.345377   -2.127564    1.352349
H       1.938351   -3.218897   -0.892963
H       0.419914   -2.158776   -2.404864
H      -0.853081   -2.417081   -1.199333
