17

C      -0.164115    1.205783    0.427649
O      -0.226202   -0.168490    0.087297
C       0.519050   -0.518775   -1.042912
C       2.089086   -0.360632   -1.057026
C       2.181836   -1.875591   -1.251232
O       1.555130   -2.478297   -0.112883
C       0.723458   -2.049453   -1.182670
C      -0.143992    0.014350   -2.309959
O       0.421927    0.260361   -3.343301
H       0.857325    1.512903    0.689222
H      -0.523216    1.854239   -0.385351
H      -0.809602    1.344120    1.297174
H       2.421798    0.223445   -1.916342
H       2.535919    0.002143   -0.130322
H       2.924365   -2.456001   -1.783674
H       0.053126   -2.773493   -1.630439
H      -1.246668    0.124677   -2.198828
