16

O       0.013008    0.032999   -0.278762
C      -0.012170    1.209757   -0.102347
C      -1.140780    2.231526    0.302644
C      -0.022299    3.109196    0.907624
C       0.762894    2.887471    2.217362
C       1.884771    3.082215    1.172028
C       1.028018    4.124257    0.337385
N       1.276118    3.403582   -0.952578
C       1.063161    2.328285    0.075304
H      -1.651912    2.654948   -0.567005
H      -1.895784    1.842072    0.989068
H       0.664310    3.654683    2.990306
H       0.703215    1.889669    2.664018
H       2.968673    3.106113    1.300887
H       1.057185    5.215000    0.419940
H       0.460005    3.489420   -1.567094
