12

N      -0.032899    1.339049    0.145265
C      -0.021009   -0.048380    0.020976
N      -1.086938   -0.820206   -0.055748
C      -0.594140   -2.102726   -0.062395
O      -1.429909   -3.162616   -0.138345
C       0.768349   -2.125738   -0.002437
N       1.125909   -0.769763    0.044260
H       0.572326    1.810328   -0.516855
H      -0.980203    1.681154    0.045288
H      -2.321017   -2.796106   -0.178780
H       1.493588   -2.918293   -0.019380
H       2.045643   -0.408283    0.227656
