15

O       0.067809    0.006209    0.217683
C       0.019331    1.177059   -0.040292
O      -1.178179    1.793742   -0.196148
C      -1.236039    3.033939   -0.925543
C      -0.282067    4.090685   -0.380152
C       1.125328    3.518491   -0.284272
N       1.461384    2.927691    1.014163
C       1.246482    2.039586   -0.155051
H      -1.017125    2.827466   -1.981298
H      -2.277742    3.353241   -0.853320
H      -0.305849    4.962256   -1.042327
H      -0.606673    4.413436    0.613162
H       1.912277    4.033899   -0.828360
H       2.459760    2.994510    1.195661
H       2.103862    1.517737   -0.566128
