17

O      -0.004294    1.372163    0.058043
C       0.002399   -0.025771   -0.026375
C      -0.539052   -0.816333    1.148063
C      -1.362580   -0.656725   -0.107638
C       1.124681   -0.555106   -0.824260
C       2.070610    0.060010   -1.586189
C       2.902244   -0.983433   -2.114471
C       2.398341   -2.147722   -1.636191
O       1.314065   -1.904843   -0.843122
H       0.758487    1.634115    0.586946
H      -0.097057   -1.783539    1.356349
H      -0.831947   -0.235159    2.015130
H      -2.201535    0.028764   -0.079159
H      -1.480403   -1.515088   -0.758442
H       2.149157    1.120010   -1.763558
H       3.756411   -0.873570   -2.764133
H       2.668950   -3.184203   -1.749040
