16

N       0.364046    0.341926   -1.053391
C      -0.040339    0.180709    0.234632
O       0.591211    0.534601    1.211825
C      -1.351208   -0.525691    0.379333
C      -2.274228   -0.563472    1.593738
C      -2.715200   -2.014348    1.150013
O      -4.054570   -2.242527    0.824125
C      -1.731960   -1.898879   -0.030738
O      -2.166792   -0.760564   -0.789840
H       1.213910    0.851358   -1.229413
H      -0.274770    0.149818   -1.806505
H      -1.726480   -0.551568    2.536546
H      -3.062343    0.192573    1.605203
H      -2.420948   -2.775106    1.876031
H      -4.267198   -1.636614    0.102942
H      -1.168339   -2.658634   -0.560872
