20

C      -0.079015    1.607703    0.054562
C      -0.023622    0.069252    0.019282
C       0.669239   -0.486279   -1.191004
C       0.105889   -0.798298   -2.417197
N      -1.221585   -0.805692   -2.866569
N       1.116911   -1.225330   -3.212999
N       2.323233   -1.215337   -2.586968
C       2.053682   -0.771231   -1.364561
C       3.152846   -0.619259   -0.360206
H       0.928080    2.035705    0.037576
H      -0.615504    2.000907   -0.815409
H      -0.585477    1.966642    0.956935
H       0.481831   -0.290644    0.923376
H      -1.045966   -0.327535    0.085198
H      -1.851408   -0.468222   -2.150058
H      -1.360374   -0.249839   -3.703500
H       1.042819   -1.610496   -4.138515
H       3.285056    0.424746   -0.053091
H       2.950790   -1.198622    0.548271
H       4.093584   -0.970518   -0.789507
