13

C      -0.006623    1.540331   -0.054894
N       1.370927    2.014152    0.115630
C       2.340705    1.220932    0.260340
O       2.358523   -0.155425    0.292790
C       1.116937   -0.692365    0.141452
C      -0.020867    0.048071   -0.024153
N      -0.973098   -0.908512   -0.128357
N      -0.442070   -2.148700   -0.031505
N       0.849453   -2.012108    0.135139
H      -0.623434    1.983086    0.739279
H      -0.395117    1.945078   -0.999590
H       3.353636    1.592009    0.385245
H      -1.967721   -0.816591   -0.260989
