19

O       0.489447    0.607975   -0.894316
C      -0.033292   -0.282032    0.040865
C      -0.031717    0.079853    1.554241
C      -1.430731   -0.534891    1.652833
C      -1.827484   -1.703235    2.507721
C      -2.478697   -0.351187    2.701910
C      -1.602572   -0.488053    0.115063
C      -2.327048    0.668971   -0.374587
C      -2.864257    1.665646   -0.785374
H      -0.105914    1.368058   -0.939063
H       0.451954   -1.245597   -0.133506
H       0.762926   -0.349073    2.169799
H      -0.046185    1.166107    1.694430
H      -2.418549   -2.494554    2.057036
H      -1.122929   -2.046079    3.259126
H      -2.217360    0.221562    3.586010
H      -3.506212   -0.224565    2.376717
H      -1.976891   -1.402488   -0.355210
H      -3.376387    2.524233   -1.144094
