15

N      -0.148556    1.362086    0.256877
C      -0.099542   -0.017537    0.071562
C      -1.098066   -0.932078   -0.215137
O      -2.394581   -0.576975   -0.510461
C      -3.376877   -1.122564    0.256778
N      -4.581199   -0.885950   -0.023150
C      -0.470663   -2.196072   -0.219296
N       0.825053   -2.090769    0.049885
N       1.024470   -0.759259    0.225250
H       0.507256    1.871462   -0.325187
H      -1.084190    1.706756    0.075788
H      -2.981608   -1.735962    1.075305
H      -5.191215   -1.354208    0.643577
H      -0.910344   -3.162223   -0.418288
H       1.940477   -0.429773    0.477601
