16

N      -0.020367    1.273764   -0.423991
C       0.041293    0.067559   -0.040111
N      -1.129383   -0.661551    0.135664
C      -1.213650   -1.874206    0.923592
C       0.078272   -2.677309    0.710906
C       1.262147   -1.757383    0.959306
O       1.215544   -0.605000    0.109188
C      -1.440251   -1.609009    2.366250
N      -1.627069   -1.388691    3.485423
H       0.916923    1.643890   -0.563470
H      -1.941579   -0.061997    0.125837
H      -2.071356   -2.457493    0.570673
H       0.110586   -3.536346    1.385287
H       0.091865   -3.037701   -0.321532
H       1.286244   -1.434498    2.008708
H       2.209174   -2.249560    0.730079
