19

C      -0.157893    1.536668   -0.053763
C       0.063997    0.063543   -0.010211
C       0.410695   -0.966320   -1.017659
C       1.429063   -1.632105   -0.099311
C       0.659887   -0.952548    1.070294
C       1.328041   -0.642302    2.382860
C      -0.714197   -1.638449    0.964647
N      -0.950063   -0.974139   -0.356514
H       0.791140    2.084097   -0.035773
H      -0.690672    1.805899   -0.971242
H      -0.759623    1.878678    0.796120
H       0.408336   -0.896973   -2.098031
H       1.504384   -2.725702   -0.085460
H       2.422327   -1.195864   -0.240399
H       2.236470   -0.046387    2.241705
H       0.661441   -0.084701    3.050298
H       1.616621   -1.565597    2.899788
H      -0.747691   -2.735351    0.955704
H      -1.448020   -1.254616    1.679810
