18

C      -0.040088    1.498099    0.004789
C       0.027412    0.004684    0.005088
C       0.564598   -0.983446   -1.084469
N       0.083592   -1.890042    0.036421
H       0.087983   -2.908377    0.099714
C       0.753766   -0.941878    1.021322
C      -1.190613   -0.967757    0.144346
C      -1.980364   -1.039920    1.477566
O      -1.712741   -2.025682    2.188648
O      -2.724999   -0.057666    1.593877
H       0.952061    1.953292    0.080129
H      -0.518208    1.862414   -0.909645
H      -0.654878    1.818634    0.850526
H      -0.009377   -1.092374   -2.006015
H       1.643123   -1.047235   -1.249510
H       1.843935   -0.994862    0.972707
H       0.343315   -1.050409    2.022203
H      -1.812811   -1.076454   -0.747702
