19

C       0.143543    1.484819    0.181525
C      -0.041763   -0.026314    0.022110
C       0.575012   -0.559710   -1.266386
N       2.066949   -0.544281   -1.333460
C       2.149331   -1.964315   -1.787769
C       3.127407   -2.856244   -1.038415
C       0.650733   -2.084196   -1.456784
O      -0.116262   -2.991667   -1.328752
H       1.207093    1.743912    0.182220
H      -0.338141    2.033653   -0.635888
H      -0.289086    1.839157    1.121911
H       0.416714   -0.548357    0.869511
H      -1.106982   -0.286989    0.023498
H       0.088503   -0.092167   -2.138270
H       2.444693    0.121714   -1.996971
H       2.294493   -2.070142   -2.874800
H       2.987291   -2.755304    0.041044
H       2.971147   -3.903110   -1.317105
H       4.161344   -2.587013   -1.275647
