20

C      -0.144130    1.510568   -0.001668
C      -0.011528   -0.014820    0.004454
C      -1.359975   -0.678799   -0.254484
C       1.173792   -0.504721   -0.886820
C       2.076754   -0.584657    0.386011
C       0.776177   -0.530701    1.250545
C       2.963204   -1.719262    0.537119
C       3.681259   -2.676977    0.659083
H       0.815860    2.004674    0.182904
H      -0.519567    1.866396   -0.967973
H      -0.843425    1.845228    0.773124
H      -1.768531   -0.378003   -1.226570
H      -1.272388   -1.770262   -0.251409
H      -2.092097   -0.399069    0.512390
H       0.991941   -1.498721   -1.302726
H       1.511522    0.158530   -1.687422
H       2.647000    0.342329    0.503364
H       0.800552    0.112081    2.134380
H       0.461289   -1.533391    1.549780
H       4.320704   -3.517274    0.767947
