19

C      -0.050906    1.467134    0.134390
C      -0.034074    0.012658    0.081838
C      -0.030399   -1.191813    0.051484
C      -0.012340   -2.624929   -0.010188
C      -0.573162   -3.469543    1.125025
C      -1.300007   -3.425614   -0.185828
C      -2.622081   -2.731432   -0.293542
C      -3.786007   -3.170175    0.490736
O      -3.073344   -1.980127    0.832122
H       0.780812    1.857195    0.732093
H       0.026654    1.906724   -0.866584
H      -0.980790    1.832370    0.584293
H       0.853414   -3.045513   -0.515254
H      -0.034304   -4.369840    1.397269
H      -1.030185   -2.928396    1.944643
H      -1.213917   -4.292646   -0.836176
H      -2.813450   -2.241851   -1.249564
H      -4.792326   -3.017431    0.103602
H      -3.673161   -3.996588    1.191002
