16

C       0.088050    1.169171   -0.306037
O      -0.211474    0.130884    0.636803
C      -1.276865   -0.627759    0.326367
C      -1.389798   -1.934625   -0.013380
O      -0.398621   -2.846458   -0.206212
C      -2.793593   -2.221660   -0.139498
C      -3.426693   -1.047743    0.139112
N      -4.764868   -0.691557    0.255605
O      -2.542045   -0.064604    0.433641
H       1.008714    1.645177    0.037037
H       0.233085    0.752795   -1.310006
H      -0.717341    1.910623   -0.334894
H       0.435879   -2.423482    0.026557
H      -3.241149   -3.166942   -0.397661
H      -5.373065   -1.291909   -0.284461
H      -4.925958    0.279986    0.020353
