12

N      -0.097265    1.281678    0.007768
C       0.006187    0.018765    0.000551
C      -1.176487   -0.934809    0.002565
O      -0.603940   -2.249740   -0.007569
C       0.757234   -2.166652   -0.015225
N       1.584871   -3.117309   -0.025045
N       1.101221   -0.821723   -0.010326
H       0.812782    1.743529    0.004786
H      -1.792294   -0.808168    0.897511
H      -1.802705   -0.798975   -0.883772
H       1.101656   -4.012808   -0.026801
H       2.065596   -0.534353   -0.014490
