16

C      -0.204505    1.307659    0.102712
O      -0.072386   -0.107916    0.089325
C       0.744569   -0.607178    1.073809
O       0.173872   -0.396779    2.393158
C       0.170834   -1.536966    3.145325
O      -0.092409   -1.545646    4.310597
C       0.573320   -2.687487    2.262642
N      -0.368218   -2.807512    1.117149
C       0.910645   -2.110223    0.944794
H       0.777630    1.798067    0.034714
H      -0.799838    1.573823   -0.772059
H      -0.712715    1.649683    1.010344
H       1.718324   -0.091491    1.083170
H       1.036434   -3.561275    2.701239
H      -0.285891   -3.748228    0.736152
H       1.681508   -2.508493    0.296560
