15

O      -0.089353    1.485050    0.101413
C       0.010041    0.088396    0.032733
C       0.764050   -0.312586   -1.233190
O       1.166487    0.509053   -2.018742
C       0.706950   -0.489631    1.232856
C       0.413618   -1.650029    1.922182
N       1.347114   -1.759681    2.896916
N       2.232395   -0.744775    2.901965
C       1.850676    0.025923    1.890186
H       0.300437    1.812322   -0.725539
H      -0.989954   -0.376344   -0.053387
H       0.923065   -1.399632   -1.377978
H      -0.373549   -2.377746    1.800667
H       1.425996   -2.478236    3.596472
H       2.385692    0.936888    1.669282
