17

N       0.578744    0.133937   -0.973521
C      -0.074543    0.194948    0.215866
O       0.346189    0.772943    1.202817
C      -1.382929   -0.554876    0.240303
C      -2.391200   -0.195568    1.328123
C      -3.100673   -1.500133    1.608198
C      -2.567434   -2.518638    0.925834
C      -1.478847   -2.045923    0.022011
N      -1.866108   -1.094454   -1.039558
H       1.423874    0.668183   -1.083518
H       0.087020   -0.224294   -1.777125
H      -1.847025    0.181789    2.201227
H      -3.077308    0.602922    1.017182
H      -3.950329   -1.568622    2.277909
H      -2.874607   -3.556124    0.980652
H      -0.620361   -2.666959   -0.210850
H      -2.880825   -1.030951   -1.097930
