22

C      -0.059350    1.536829    0.008909
C      -0.211235    0.047803    0.234513
C       0.692483   -0.950956   -0.451934
C       0.750539   -0.782053    1.060251
C       1.974515   -0.127636    1.678613
C       0.128215   -1.870258    1.926188
C       1.015436   -3.072094    2.271982
N       1.801103   -3.533148    1.253047
O       0.980361   -3.609878    3.361161
H       0.981423    1.827906   -0.155961
H      -0.627325    1.849150   -0.874272
H      -0.434433    2.110494    0.863799
H      -1.249599   -0.265444    0.318883
H       0.246536   -1.848950   -0.869671
H       1.518939   -0.555066   -1.035273
H       2.418397    0.623338    1.021252
H       1.718352    0.364278    2.624147
H       2.747775   -0.872206    1.896147
H      -0.197650   -1.459133    2.886428
H      -0.768099   -2.267784    1.433076
H       1.915401   -3.011163    0.401803
H       2.432771   -4.291179    1.453081
