21

C      -0.010320    1.542083   -0.014593
C      -0.020756    0.006962   -0.026006
C      -1.475937   -0.499822    0.059224
C       0.685142   -0.513330   -1.293147
C       0.949666   -2.016085   -1.220293
N       1.636376   -2.323908    0.020495
C       1.429549   -1.666214    1.214286
O       1.858361   -2.091340    2.274384
N       0.762968   -0.462126    1.119725
H       1.013840    1.922302   -0.060426
H      -0.571589    1.940658   -0.865403
H      -0.476554    1.926746    0.899600
H      -2.068731   -0.141651   -0.789487
H      -1.520379   -1.592169    0.074986
H      -1.949494   -0.138502    0.977827
H       0.077524   -0.286100   -2.174100
H       1.640722    0.010832   -1.400206
H       0.005384   -2.574468   -1.315375
H       1.581396   -2.321105   -2.061742
H       2.036689   -3.239576    0.145977
H       0.554159   -0.070432    2.025803
