21

C      -0.660416    1.217456   -0.064341
C       0.154370   -0.071449   -0.151486
C       1.361865   -0.011809   -1.123440
C       2.341758   -0.979949   -0.508854
C       1.993731   -1.314070    0.733108
C       0.737285   -0.623356    1.183646
C       0.879500    0.321593    2.417144
O      -0.147536   -0.380351    3.140720
C      -0.257868   -1.373965    2.105005
H      -0.035280    2.072620    0.213854
H      -1.117953    1.448991   -1.031745
H      -1.465604    1.137567    0.673956
H      -0.508603   -0.865584   -0.521286
H       1.081804   -0.272179   -2.150723
H       1.791967    0.999794   -1.171031
H       3.233861   -1.322158   -1.022174
H       2.556784   -1.966449    1.393018
H       1.854122    0.256729    2.919297
H       0.629051    1.377474    2.266654
H      -1.283734   -1.457808    1.722265
H       0.076356   -2.364197    2.444399
