17

O      -0.030928    1.357601    0.366319
C       0.032696   -0.000288   -0.050634
C      -1.370572   -0.540977   -0.065306
C      -1.999170   -1.100568    1.193381
C      -1.704354   -2.008560    0.006833
C      -2.850299   -2.236038   -0.961108
O      -3.343892   -3.300668   -1.251739
C      -3.216561   -0.891229   -1.493028
C      -2.376923    0.036832   -1.014304
H       0.836235    1.753273    0.237203
H       0.473624   -0.084289   -1.056009
H       0.650476   -0.603858    0.632657
H      -1.359924   -1.223043    2.062427
H      -3.029413   -0.844724    1.413938
H      -0.957749   -2.784423    0.119940
H      -4.059184   -0.737184   -2.154128
H      -2.402951    1.100070   -1.222139
