16

C      -0.040804    1.590745    0.009885
C       1.470124    1.254108   -0.005709
C       1.155761    0.150828    1.047934
O       2.070458   -0.916418    1.144853
C       2.053542   -1.694737   -0.026837
O       2.049143   -0.903906   -1.190231
C       1.136472    0.162152   -1.065201
C      -0.006847    0.042544    0.001279
H      -0.426570    2.059011    0.918659
H      -0.443047    2.068685   -0.886627
H       2.316844    1.939919   -0.009763
H       0.903734    0.474753    2.060112
H       2.959627   -2.304067   -0.038372
H       1.160546   -2.342905   -0.022157
H       0.866046    0.496880   -2.069081
H      -0.862183   -0.633549    0.005464
