19

C       0.027031    1.500724    0.094641
C      -0.076065    0.018293   -0.022854
C      -0.105211   -0.781563   -1.092394
C      -0.037379   -2.204127   -0.538190
C      -0.468115   -3.376436   -1.371640
O       1.339203   -2.389110   -0.079700
C       1.426665   -1.585000    1.096019
C      -0.001848   -0.953156    1.155083
O      -0.750728   -2.080805    0.681113
H       0.953255    1.797719    0.603484
H       0.016208    1.981052   -0.887216
H      -0.799704    1.912393    0.687172
H      -0.046023   -0.515737   -2.139429
H       0.175265   -3.462993   -2.250699
H      -0.389526   -4.294836   -0.786063
H      -1.501497   -3.243979   -1.700962
H       1.610364   -2.221041    1.968768
H       2.227092   -0.842264    1.005122
H      -0.348417   -0.618473    2.131769
