19

C      -0.035798    1.395560   -0.001801
O       0.005558   -0.026188    0.057053
C       0.586312   -0.636819   -0.990040
N       0.687188   -1.891081   -1.027458
C       1.329488   -2.477330   -2.184660
C       2.558599   -3.289004   -1.757388
C       3.195902   -4.024814   -2.951457
C       4.385294   -4.784844   -2.574673
N       5.326318   -5.378969   -2.263452
H       0.972754    1.825472   -0.021720
H      -0.596750    1.744999   -0.876925
H      -0.546149    1.724392    0.903844
H       0.943788    0.045201   -1.778945
H       0.611701   -3.151209   -2.672595
H       1.625686   -1.724433   -2.938259
H       3.296985   -2.623113   -1.299044
H       2.262959   -4.010054   -0.989930
H       2.472593   -4.714477   -3.402760
H       3.478129   -3.311346   -3.735224
