16

O      -0.029159    1.397316    0.131222
C       0.033270    0.038024    0.007044
C       0.055610   -0.754562   -1.124256
N       0.089817   -0.670982   -2.532091
C       0.421326   -2.061662   -2.963226
C       0.093507   -3.003850   -1.765010
N       0.116405   -2.036210   -0.687654
N       0.110629   -2.161253    0.647135
C       0.058101   -0.892903    1.074425
H       0.353649    1.793113   -0.658648
H      -0.807115   -0.378696   -2.909340
H      -0.123854   -2.324301   -3.870999
H       1.492451   -2.108406   -3.182092
H      -0.891658   -3.480725   -1.845717
H       0.848205   -3.781425   -1.629051
H       0.054867   -0.672909    2.131559
