17

C      -0.155413    1.502982    0.034836
C       0.041315    0.008225    0.057938
O      -1.184873   -0.723622    0.327058
C      -0.546033   -1.490584    1.372431
C       0.787683   -0.740535    1.182942
C       1.911716   -1.498610    0.474495
O       1.606901   -1.478470   -0.931813
C       0.663546   -0.545319   -1.236129
O       0.374791   -0.259997   -2.360382
H       0.804985    2.020888   -0.057942
H      -0.770018    1.771023   -0.829018
H      -0.653986    1.836487    0.948338
H      -1.040923   -1.342254    2.338264
H      -0.519033   -2.562739    1.141583
H       1.133989   -0.161778    2.038391
H       2.885067   -1.017512    0.620876
H       1.990806   -2.544498    0.783642
