21

C       0.136995    1.598319   -0.010553
C       0.067172    0.088487    0.030336
C      -1.349939   -0.540427    0.257405
C      -0.830180   -1.275085    1.529842
C       0.605782   -0.800545    1.214160
C       1.367221   -1.677852    0.182274
C       1.005013   -0.688112   -0.965897
C       0.399144   -1.238841   -2.226112
O       0.567313   -0.779870   -3.328673
H       1.172025    1.953597    0.042559
H      -0.300746    1.985558   -0.938696
H      -0.414803    2.040472    0.827007
H      -2.120941    0.208631    0.454290
H      -1.720012   -1.187998   -0.540185
H      -1.228671   -0.846759    2.453175
H      -0.978134   -2.358387    1.567583
H       1.204221   -0.392050    2.030323
H       2.439977   -1.786246    0.352740
H       0.943183   -2.680686    0.057827
H       1.846433   -0.051093   -1.251046
H      -0.251278   -2.133955   -2.080760
