18

C       0.010927    1.558159   -0.047915
C      -0.010420    0.052445   -0.064634
C       0.449597   -0.817950   -1.247634
C      -0.254603   -1.933281   -0.448704
O       0.607475   -2.073932    0.693169
C       0.375501   -0.770873    1.248176
C      -1.122328   -0.842484    1.623212
C      -1.291252   -0.864041    0.098289
H       1.040980    1.933779   -0.065617
H      -0.507777    1.972436   -0.919309
H      -0.469755    1.963920    0.849139
H      -0.090166   -0.542449   -2.158938
H       1.515538   -0.952536   -1.451534
H      -0.526959   -2.904648   -0.857655
H       1.170251   -0.487624    1.937465
H      -1.434960   -1.701582    2.221451
H      -1.505122    0.087500    2.051066
H      -2.226494   -0.708472   -0.437346
