21

C       0.015512    1.602822    0.061128
C      -0.012202    0.074237    0.131043
C      -1.412454   -0.511043   -0.115470
C      -1.442205   -2.011174   -0.045257
C      -0.895512   -2.970516   -1.100217
O      -1.954390   -3.940455   -0.839015
C      -2.576456   -3.029306    0.080576
C      -1.646785   -2.822228    1.229060
O      -0.788336   -3.833233    1.653178
H       1.022415    1.991869    0.240559
H      -0.310150    1.961479   -0.921742
H      -0.650767    2.045191    0.810301
H       0.687773   -0.339981   -0.606344
H       0.347147   -0.261926    1.111259
H      -2.112091   -0.100328    0.624603
H      -1.780215   -0.177378   -1.096414
H      -0.978904   -2.591193   -2.124746
H       0.101860   -3.392329   -0.933927
H      -3.659474   -2.964096    0.069785
H      -2.040722   -2.239997    2.058653
H      -0.923616   -4.567691    1.038362
