24

C      -0.047479    1.465404   -0.231486
C       0.030168   -0.042391    0.045232
C       0.798422   -0.309884    1.347562
C      -1.378912   -0.662761    0.051926
C      -1.418751   -2.195937    0.121489
C      -2.824756   -2.753127    0.032208
C      -3.472319   -2.985053   -1.310573
C      -3.066770   -4.159471   -0.451714
H       0.950833    1.913359   -0.278778
H      -0.554358    1.672548   -1.179930
H      -0.603511    1.980440    0.561344
H       0.592975   -0.505635   -0.779037
H       0.265156    0.113270    2.207901
H       0.935766   -1.378887    1.534084
H       1.792194    0.149459    1.317103
H      -1.948220   -0.246103    0.895970
H      -1.909425   -0.343898   -0.854837
H      -0.815693   -2.612909   -0.697419
H      -0.952138   -2.544861    1.051348
H      -3.490867   -2.406242    0.819345
H      -4.529231   -2.770801   -1.425455
H      -2.881268   -2.780906   -2.198067
H      -2.205374   -4.740990   -0.764651
H      -3.847007   -4.745338    0.021812
