16

C      -0.046584    1.554135    0.035255
C       0.089521    0.054745   -0.005876
N      -0.778560   -0.801015    0.859122
C       0.687950   -0.782717    1.072526
C       1.417731   -1.957663    0.430813
C       1.138576   -1.759126   -1.046911
C       0.431006   -0.653302   -1.283070
H       0.832617    2.041833   -0.399556
H      -0.924783    1.887455   -0.530199
H      -0.155538    1.912849    1.064198
H      -1.204325   -0.207195    1.570938
H       1.070717   -0.341364    1.987297
H       2.493572   -1.934024    0.649493
H       1.037255   -2.920217    0.793750
H       1.460303   -2.470625   -1.799297
H       0.103995   -0.303316   -2.255571
