15

C      -0.019978    1.427217    0.182427
C      -0.011533   -0.013637   -0.026018
C       0.003039   -1.205673   -0.191852
C      -0.012660   -2.651019   -0.395662
C      -1.386372   -3.263514   -0.179953
C      -1.544848   -4.650095    0.271504
O      -1.755659   -3.554322    1.165065
H       0.686052    1.719477    0.967604
H       0.257922    1.965852   -0.730358
H      -1.012904    1.778099    0.484675
H       0.317905   -2.887452   -1.416782
H       0.694280   -3.140760    0.285306
H      -2.184237   -2.818677   -0.775485
H      -2.435956   -5.213067   -0.002252
H      -0.660217   -5.253358    0.473833
