18

C       0.319029    0.958719    0.240858
O      -0.233569    0.043854   -0.698172
C       0.566779   -0.985500   -1.043178
N       0.138371   -1.862714   -1.838553
C       0.973508   -2.964273   -2.262837
C       2.470396   -2.944380   -1.911268
O       2.754959   -3.016379   -0.519951
C       3.224184   -4.045738   -2.656913
O       3.013494   -4.369203   -3.796235
H       0.509126    0.477362    1.207823
H       1.250966    1.402885   -0.129687
H      -0.422725    1.746950    0.374354
H       1.556175   -0.968868   -0.571016
H       0.533354   -3.897176   -1.875658
H       0.907996   -3.051311   -3.353321
H       2.901549   -1.990246   -2.248439
H       2.203790   -3.708025   -0.137134
H       4.006022   -4.534808   -2.031312
