18

N       0.097607   -1.189989   -0.101069
C       0.013709   -0.039654   -0.027053
C      -0.045804    1.418677    0.075140
C       1.340933    2.043985   -0.064126
C       2.364103    1.798364    1.079523
N       2.730662    3.245670    1.086675
C       1.679962    3.561038    0.086708
C       2.241888    3.505480   -1.351902
N       1.855723    2.066785   -1.445692
H      -0.698167    1.802571   -0.715359
H      -0.491877    1.683811    1.040624
H       1.897385    1.445444    2.007636
H       3.198494    1.129699    0.840340
H       2.567311    3.685316    1.984182
H       0.965133    4.342923    0.349858
H       1.720359    4.116656   -2.097296
H       3.314539    3.717599   -1.390876
H       2.608708    1.416355   -1.641975
