15

N      -0.003015    1.356084    0.128428
C       0.000189   -0.016443    0.034483
N      -1.077788   -0.727325    0.018575
C      -0.718058   -2.156268   -0.002146
C       0.788751   -2.182212   -0.020217
C       1.907915   -2.941556   -0.042751
O       3.013588   -2.127000   -0.027520
C       2.584119   -0.834633    0.006890
C       1.225803   -0.821093    0.011188
H       0.771731    1.834396   -0.304475
H      -0.901389    1.775728   -0.064808
H      -1.140619   -2.660341    0.876471
H      -1.166776   -2.635679   -0.881248
H       2.119414   -3.997178   -0.068129
H       3.360148   -0.088051    0.030904
