15

O       0.055858    1.438996    0.199351
C       0.049460    0.037165    0.069764
C       0.597940   -0.538434    1.389913
N      -0.594655   -0.725027    2.195157
C      -1.778635   -0.698754    1.523492
O      -2.889340   -0.813223    1.976450
C      -1.394257   -0.538917    0.023599
C      -2.307758    0.293020   -0.739403
N      -2.968585    0.997558   -1.374006
H      -0.451254    1.823610   -0.526481
H       0.641994   -0.292631   -0.792514
H       1.131088   -1.482937    1.220298
H       1.287380    0.179735    1.840488
H      -0.581019   -0.858242    3.193506
H      -1.382973   -1.546515   -0.410897
