23

C       0.056392    1.584745   -0.002148
C       0.021006    0.053986   -0.019003
C       0.744085   -0.505187   -1.250820
O       0.768267   -1.923086   -1.262669
C       1.456573   -2.444380   -0.141432
C       0.768407   -2.076528    1.188804
C      -0.583563   -2.784020    1.318397
O       1.626750   -2.436926    2.273507
C       0.642247   -0.546661    1.253367
H       1.086757    1.955451    0.049382
H      -0.406166    2.005207   -0.901572
H      -0.480801    1.980063    0.865838
H      -1.027099   -0.266543   -0.084838
H       0.240122   -0.201021   -2.173489
H       1.776138   -0.111098   -1.283215
H       1.488151   -3.532002   -0.274358
H       2.493456   -2.071858   -0.107206
H      -0.441269   -3.871445    1.359105
H      -1.097485   -2.472613    2.232501
H      -1.224830   -2.574671    0.458739
H       1.617155   -3.396969    2.353112
H       1.654415   -0.143052    1.388327
H       0.068184   -0.259167    2.141540
