15

N       0.744543    0.681670   -1.087729
C       0.225807   -0.360432   -0.328210
C      -1.067649   -0.735475   -0.112379
O      -1.139883   -1.731228    0.800039
N       0.134205   -2.061347    1.198148
C       0.939212   -1.254150    0.538872
N       2.302037   -1.345632    0.837776
C       3.375153   -1.126779    0.017904
N       3.296690   -0.668956   -1.171281
H       1.664497    0.434722   -1.456634
H       0.115906    0.985600   -1.819095
H      -2.007876   -0.383210   -0.505162
H       2.483879   -1.873026    1.678457
H       4.312386   -1.385843    0.521737
H       4.222529   -0.560824   -1.574615
