22

C      -0.219039    1.666950    0.151594
C       0.151362    0.191335   -0.000131
C       0.777169   -0.378958    1.272932
O       1.423530    0.306195    2.046069
N       0.576204   -1.720055    1.458099
C       1.132133   -2.467613    2.555746
C       0.194907   -3.341016    3.434738
C       1.341435   -4.384977    3.525181
C       1.977401   -3.738652    2.264130
H       0.642635    2.231961    0.512352
H      -0.546778    2.086549   -0.803599
H      -1.027422    1.797806    0.877289
H      -0.718748   -0.405952   -0.298091
H       0.893800    0.073635   -0.800971
H       0.027279   -2.219319    0.776127
H       1.688772   -1.750491    3.160609
H      -0.192088   -2.902965    4.357527
H      -0.647530   -3.724905    2.848691
H       1.959373   -4.231109    4.413750
H       1.069151   -5.440437    3.469283
H       1.637017   -4.234676    1.348352
H       3.063368   -3.629391    2.219401
