15

C       0.090675    1.449329   -0.292491
C       1.454320    2.011476    0.251884
C       2.139291    0.738758    0.626184
C       1.320892   -0.356551    0.629858
C      -0.087163   -0.012652    0.247815
N       2.020237   -1.450137    1.024953
N       3.250542   -1.081671    1.265905
N       3.331339    0.260173    1.032005
H      -0.747862    2.095757   -0.023938
H       0.138222    1.420919   -1.384673
H       1.980298    2.605284   -0.502307
H       1.307333    2.661023    1.124152
H      -0.758156   -0.043563    1.114849
H      -0.516322   -0.674406   -0.509785
H       4.218613    0.718593    1.160284
