18

O      -0.012254   -0.023518   -0.007463
C      -0.035757    1.179149    0.024167
C      -1.280994    2.071199    0.082692
C      -0.746823    3.442937    0.473374
C      -0.331177    3.650431    1.959086
C       1.138598    3.642690    1.480890
C       1.843688    2.272149    1.426224
C       1.185026    2.095234    0.022952
N       0.707909    3.516569    0.026429
H      -1.721482    2.088738   -0.922630
H      -2.032496    1.659888    0.761215
H      -1.337861    4.261511    0.058372
H      -0.658069    4.603220    2.380107
H      -0.611124    2.852760    2.654419
H       1.749915    4.505785    1.753878
H       2.930856    2.348376    1.367867
H       1.582668    1.536673    2.191600
H       1.862623    1.835287   -0.793992
