16

C      -0.384726    1.520292    0.314637
C      -0.146492    0.020265    0.135141
C       0.669905   -0.307898   -1.121225
O       1.967276    0.314586   -0.960924
C       2.651834    0.613131   -2.084005
O       3.739369    1.103679   -2.060074
C       0.817029   -1.745693   -1.335235
C       0.929763   -2.929076   -1.507853
H       0.561855    2.059810    0.396968
H      -0.942602    1.938555   -0.530694
H      -0.964975    1.709413    1.221871
H       0.383741   -0.394472    0.998480
H      -1.097274   -0.517308    0.056901
H       0.177481    0.139487   -1.996804
H       2.096778    0.365560   -3.009178
H       1.035047   -3.974676   -1.664354
