22

C      -0.016487    1.528720    0.120167
C      -0.001648    0.001224    0.000796
C       0.732310   -0.520912   -1.237065
C       2.250687   -0.199027   -1.289965
C       2.871919   -1.300424   -2.150704
C       3.177201   -2.616610   -1.481839
C       1.881273   -2.446849   -2.233192
C       0.645324   -2.058986   -1.421321
H       0.997045    1.935811    0.197490
H      -0.491038    1.988323   -0.754387
H      -0.571183    1.852277    1.006610
H       0.462721   -0.433552    0.897148
H      -1.035209   -0.369140   -0.014338
H       0.275868   -0.063259   -2.126344
H       2.439628    0.792617   -1.710780
H       2.678514   -0.196906   -0.278093
H       3.467144   -1.015432   -3.011097
H       3.942592   -3.245157   -1.925686
H       3.139966   -2.663004   -0.396287
H       1.747699   -3.002644   -3.154595
H       0.638160   -2.562462   -0.445352
H      -0.280819   -2.347145   -1.927948
