20

C      -0.181910    1.380473   -0.040615
N       0.150525   -0.037562   -0.060454
C       1.572350   -0.384089   -0.125812
C       0.788730   -0.598690    1.111097
C       0.978712    0.008216    2.502300
O       0.584204   -1.241142    3.113220
C       0.340897   -1.872739    1.820509
C      -1.120854   -2.269940    1.701580
O      -1.474027   -3.145058    2.755579
H       0.554090    2.001821    0.496240
H      -0.247803    1.744654   -1.070066
H      -1.159180    1.519488    0.432270
H       1.830830   -1.217468   -0.774404
H       2.297550    0.430017   -0.115714
H       2.002398    0.289395    2.776913
H       0.299760    0.830588    2.762988
H       0.989292   -2.749243    1.696715
H      -1.746634   -1.363885    1.695902
H      -1.296359   -2.800248    0.760346
H      -1.192536   -2.705178    3.567425
