16

O      -0.015245    1.464875    0.148902
C       1.158641    2.091290   -0.098432
N       2.168294    1.672075   -0.742504
C       2.028109    0.427556   -1.437889
C       2.110276   -0.961858   -0.795346
C       2.008645   -1.058452    0.688113
C       0.856447   -0.559787    1.134401
C       0.031729    0.016532   -0.005314
C       0.783906   -0.401132   -1.270468
H       1.151378    3.094104    0.325429
H       2.463466    0.470657   -2.431976
H       2.635160   -1.723254   -1.360093
H       2.804436   -1.458518    1.305522
H       0.557659   -0.442858    2.168722
H      -1.019055   -0.277719   -0.003055
H       0.236319   -0.794232   -2.117019
