19

C      -0.100031    1.524243   -0.026989
C       0.114399    0.034764   -0.003028
C       0.426762   -0.681445   -1.319122
N       1.185202   -1.845115   -0.894260
C       1.460075   -1.920760    0.443441
O       2.131855   -2.763134    0.999347
C       0.776787   -0.728105    1.090501
C       1.354194   -0.201356    2.371891
N      -0.698546   -0.835260    0.873234
H       0.749340    2.040022   -0.487456
H      -0.997078    1.779509   -0.603202
H      -0.228838    1.923900    0.983170
H      -0.495879   -0.962895   -1.840935
H       1.018897   -0.037006   -1.983385
H       1.453586   -2.590817   -1.515236
H       2.391181    0.120069    2.232528
H       0.780216    0.646952    2.756364
H       1.356873   -0.993039    3.127017
H      -1.155435   -0.250048    1.573204
