19

C      -0.029185    1.549556    0.066698
C       1.517339    1.462958   -0.005345
C       2.055228    1.116784    1.394776
C       1.654016   -0.357459    1.661492
O       0.258371   -0.528670    1.302709
C      -0.010445    0.007064    0.017302
C       1.336657    0.104700   -0.807533
C       2.308962   -0.985587   -0.533459
C       2.482044   -1.239681    0.766483
H      -0.476484    2.005977    0.953685
H      -0.465906    1.981322   -0.838624
H       2.071541    2.268137   -0.490681
H       3.143249    1.212567    1.454250
H       1.615311    1.784047    2.144064
H       1.723175   -0.627051    2.716046
H      -0.856132   -0.544744   -0.398884
H       1.139852    0.291529   -1.863550
H       2.791883   -1.537800   -1.332904
H       3.131555   -2.008726    1.168357
