15

O       0.015255   -0.014006   -0.051376
C       0.035792    1.189297   -0.046776
C      -1.149680    2.128102    0.293022
O      -0.630621    3.454754    0.391545
C       0.517333    3.506384   -0.461456
O       1.484672    4.433584   -0.068733
C       2.703817    3.752335    0.253646
C       2.386441    2.284256    0.146529
C       1.135074    2.147968   -0.287111
H      -1.909095    2.044408   -0.501157
H      -1.614424    1.847238    1.241757
H       0.180867    3.756977   -1.481170
H       3.496840    4.086102   -0.431126
H       3.021933    4.007226    1.274396
H       3.042409    1.503074    0.510023
