21

O      -0.055328    1.357661    0.033278
C       0.053983   -0.035566   -0.034793
C       1.078493   -0.635356   -1.000565
C       0.324133   -1.792926   -1.701209
C      -0.859095   -2.163961   -0.769097
C      -0.441266   -3.115537    0.377937
C       0.230187   -2.215819    1.446648
C      -0.354351   -0.826961    1.197834
C      -1.211270   -0.842490   -0.058320
H       0.663383    1.685402    0.584640
H       1.388583    0.137299   -1.709155
H       1.982100   -0.984018   -0.486275
H      -0.075452   -1.432120   -2.654784
H       0.965217   -2.651994   -1.924458
H      -1.693586   -2.577611   -1.340481
H      -1.339890   -3.572794    0.806785
H       0.204206   -3.930726    0.034176
H       0.004119   -2.557807    2.460895
H       1.322693   -2.225710    1.353070
H      -0.671592   -0.221685    2.040755
H      -2.190791   -0.383921   -0.108408
