16

C       0.019603    1.523882   -0.212898
C      -0.030305    0.011239    0.063920
C      -1.420676   -0.549081    0.049029
C      -2.150992   -1.012882    1.093999
O      -3.387631   -1.432486    0.690098
C      -3.459330   -1.237546   -0.637470
C      -2.291326   -0.698946   -1.100478
C      -1.995064   -0.364278   -2.444362
N      -1.730714   -0.083016   -3.536596
H       1.052550    1.883005   -0.186954
H      -0.392985    1.758484   -1.198192
H      -0.554760    2.077545    0.535990
H       0.576760   -0.511435   -0.685021
H       0.425958   -0.202255    1.036466
H      -1.945082   -1.113960    2.146624
H      -4.377510   -1.521528   -1.123963
