20

C      -0.053741    1.554636   -0.104629
C       1.490041    1.547489    0.054623
C       1.404785    0.094152    0.620920
C      -0.034332    0.008181    0.013320
C       2.437924   -0.925770    0.213500
C       2.971560   -1.574444    1.252085
C       2.413073   -1.047849    2.531740
N       2.736474    0.398372    2.739298
C       1.439593    0.007349    2.147483
H      -0.552236    2.027101    0.746590
H      -0.464987    1.982173   -1.021800
H       2.000172    1.570837   -0.912964
H       1.953090    2.286365    0.711920
H      -0.798888   -0.474843    0.629194
H      -0.022873   -0.479521   -0.965827
H       2.714236   -1.066699   -0.826663
H       3.734024   -2.342482    1.202139
H       2.289862   -1.680790    3.404096
H       2.580738    0.623979    3.721256
H       0.531605    0.189630    2.714337
