9

N       0.097766   -1.135999   -0.005020
C       0.025658    0.019845    0.002466
C      -0.095030    1.423608    0.012011
C      -1.159102    2.275644    0.031192
N      -0.696881    3.575924    0.032265
C       0.593292    3.454965    0.014175
O       1.046650    2.186777    0.000897
H      -2.209619    2.034373    0.044021
H       1.338730    4.234753    0.008501
