20

C      -0.143255    1.557964   -0.041794
C       0.036030    0.053260    0.047162
N       1.244940   -0.561789   -0.674158
C       2.114583   -0.172809    0.562934
C       3.128119   -1.287155    0.701048
C       2.401158   -2.381894    0.469140
C       1.021209   -1.818934    0.217162
C       0.762912   -0.637665    1.219154
C       0.403249   -0.707191    2.680812
H       0.725014    2.119084    0.313124
H      -0.330327    1.852140   -1.079817
H      -1.007812    1.871293    0.553626
H      -0.890687   -0.444289   -0.267429
H       2.448864    0.862428    0.608240
H       4.182513   -1.178123    0.910681
H       2.690463   -3.422353    0.436189
H       0.203510   -2.470849   -0.095888
H       1.146007   -1.294876    3.231559
H       0.362897    0.292730    3.126662
H      -0.576294   -1.176877    2.823462
