18

O       0.397596    0.835946    1.075315
C       0.089547    0.002637   -0.033488
C      -1.306602   -0.580799    0.042513
C      -1.674683   -2.002822   -0.136443
C      -0.586401   -2.965327    0.377127
C      -0.711824   -2.190022    1.730030
N      -1.829031   -1.325178    1.210520
C      -0.983769   -4.358117    0.428377
C      -1.321031   -5.511258    0.473027
H      -0.351339    1.422121    1.225797
H       0.180698    0.550029   -0.984825
H       0.862849   -0.769381   -0.040221
H      -2.074471    0.110323   -0.306074
H      -2.528547   -2.320701   -0.726038
H       0.378850   -2.881308   -0.134292
H      -1.084115   -2.819737    2.537683
H       0.163269   -1.630015    2.066707
H      -1.613775   -6.531112    0.512893
