21

C      -0.104104    1.427454   -0.288317
C      -0.109514   -0.044300    0.070718
C      -0.655531   -0.475961    1.413287
C       0.840104   -0.527869    1.136898
C       1.612982   -1.792104    1.040155
C       2.145938   -2.326909   -0.071511
C       1.978825   -1.861333   -1.446621
C       0.891009   -1.247520   -1.934851
C      -0.342755   -0.988184   -1.106892
H       0.657398    1.639043   -1.048433
H      -1.075132    1.738577   -0.692266
H       0.111220    2.054183    0.582707
H      -1.007577    0.283596    2.103454
H      -1.197777   -1.414639    1.461192
H       1.396772    0.256210    1.651011
H       1.849846   -2.265079    1.992820
H       2.788443   -3.197708    0.051386
H       2.799721   -2.085500   -2.125152
H       0.871531   -0.969476   -2.985280
H      -0.690720   -1.952265   -0.711946
H      -1.151935   -0.596805   -1.733365
