15

C      -0.493296    0.804482    0.041751
N       0.624627   -0.115024   -0.001859
C       0.735885   -0.846548   -1.012377
O       1.789567   -1.702223   -1.120632
C       1.771318   -2.593605   -2.209671
C       1.000693   -3.867451   -1.874290
F      -0.277018   -3.593187   -1.572306
F       1.009094   -4.689338   -2.934197
F       1.535426   -4.514511   -0.839123
H      -0.119207    1.829602    0.139421
H      -1.149185    0.756555   -0.842452
H      -1.098172    0.599543    0.931756
H       0.051504   -0.861959   -1.873251
H       1.321581   -2.150955   -3.106756
H       2.805707   -2.866448   -2.428521
