13

C       0.001131    1.493470   -0.055868
C      -0.075705    0.003029    0.033129
N      -1.130759   -0.655772   -0.253501
C      -1.081793   -2.048121   -0.132191
N      -2.112393   -2.750288   -0.408235
C       0.210409   -2.585818    0.321700
N       1.251532   -1.897046    0.601696
O       1.116110   -0.508980    0.452474
H       0.788820    1.789281   -0.755559
H      -0.959822    1.880451   -0.391380
H       0.255561    1.917106    0.920464
H      -1.911674   -3.742365   -0.268707
H       0.340382   -3.659217    0.445309
