18

C       0.608971    1.545641    0.178872
C       0.949372    0.287782   -0.544654
N      -0.267435    0.378709    0.258243
C      -0.332633   -0.321823    1.486660
C       0.744828   -0.763221    2.495821
C      -0.406783   -1.583283    3.133766
O      -1.298542   -0.567671    3.677317
C      -1.627880   -0.266755    2.322297
C      -1.171333   -1.570417    1.758789
H       1.208683    1.794430    1.051466
H       0.205623    2.399724   -0.357373
H       0.795166    0.210677   -1.617099
H       1.779659   -0.298508   -0.158066
H       1.488804   -1.417161    2.032770
H       1.224929   -0.022117    3.142927
H      -0.234480   -2.422858    3.802989
H      -2.466086    0.378165    2.096986
H      -1.616698   -2.318868    1.119144
