21

C       0.019676    1.543913    0.036787
C       0.030843    0.044422   -0.010908
C       0.488090   -0.935636   -1.092195
C       1.264901   -1.759636   -0.067619
C       0.663620   -0.862048    1.080161
C      -0.342605   -1.544408    1.964247
C      -1.482595   -2.007065    1.451910
C      -1.834239   -1.843961   -0.006046
C      -0.979845   -0.801880   -0.728623
H       1.023753    1.950040    0.208830
H      -0.354219    1.966113   -0.902228
H      -0.627256    1.909881    0.843841
H       0.821663   -0.722054   -2.102141
H       1.047480   -2.830786   -0.007095
H       2.345546   -1.624061   -0.163689
H       1.439422   -0.356755    1.658294
H      -0.111893   -1.681303    3.017117
H      -2.206634   -2.520972    2.078969
H      -1.769948   -2.815950   -0.517611
H      -2.890394   -1.552885   -0.084428
H      -1.524506   -0.252316   -1.493231
