20

C      -0.117468    1.584298   -0.106497
C      -0.058168    0.084191    0.055238
N       1.236362   -0.572359   -0.191853
C       0.649674   -0.623389    1.161107
C       1.407671    0.074313    2.243325
N       0.822845    0.019340    3.596939
C       2.118541   -0.633841    3.346870
C       2.181524   -2.134124    3.505449
H       0.811646    2.058326    0.217387
H      -0.272633    1.849311   -1.157983
H      -0.945217    2.006566    0.473516
H      -0.944143   -0.431970   -0.314953
H       1.111395   -1.459859   -0.670211
H       0.193753   -1.558585    1.477327
H       1.861004    1.011203    1.928424
H       0.946524    0.906145    4.076917
H       3.003791   -0.116388    3.716985
H       1.253529   -2.609793    3.180778
H       3.010116   -2.553049    2.924224
H       2.337703   -2.401006    4.556312
