15

N      -0.218084    1.357735   -0.003303
C       0.020909   -0.028424   -0.061027
C       0.962047   -0.898662   -0.917847
C       0.137956   -2.092556   -0.383498
O       0.447634   -2.113234    1.040032
C      -0.299281   -0.912211    1.145448
C      -1.081586   -1.121861   -0.126906
C      -2.445112   -1.091555   -0.480558
N      -3.561142   -1.070041   -0.792238
H       0.506832    1.851438    0.505891
H      -0.314286    1.775418   -0.922164
H       0.793249   -0.730781   -1.984661
H       2.031328   -0.908673   -0.685439
H       0.111645   -3.074302   -0.847248
H      -0.613004   -0.546387    2.113518
