21

C      -0.177000    1.525429   -0.014012
C       0.094716    0.014022   -0.005446
C       0.776022   -0.456916   -1.263277
C       0.029935   -0.955056   -2.455554
O       0.091113   -0.397888   -3.742296
C       1.007212   -1.897180   -1.801982
C       2.512916   -1.577404   -1.976092
C       2.832081   -0.400198   -2.863303
C       2.292212   -0.164090   -1.476888
H       0.751922    2.092335   -0.135383
H      -0.840309    1.798807   -0.840698
H      -0.645963    1.847729    0.920929
H       0.717713   -0.241799    0.862562
H      -0.848340   -0.531342    0.122651
H      -0.992327   -1.224272   -2.171493
H      -0.014425   -1.118075   -4.374032
H       0.669857   -2.833525   -1.370785
H       3.273242   -2.279047   -1.658378
H       3.898466   -0.203919   -2.944504
H       2.253926   -0.164502   -3.743662
H       2.857452    0.366643   -0.720858
