14

C       0.072039   -1.255619   -0.094497
C       0.038519   -0.056343   -0.027466
C      -0.004180    1.388088    0.055829
C      -0.302549    2.067223    1.454110
C       1.037310    2.807766    1.322462
O       2.063737    1.813082    1.211036
C       1.345193    2.146079    0.033710
C       1.384688    4.104328    1.813298
N       1.620539    5.160908    2.219599
H       0.107335   -2.315592   -0.152150
H      -0.675704    1.801681   -0.702986
H      -1.173985    2.721791    1.420550
H      -0.358906    1.397005    2.311719
H       1.910501    2.495197   -0.822188
