21

C      -0.137855    1.301599    0.089381
O       0.177875   -0.074618   -0.028226
C       0.755022   -0.532941   -1.270210
C       0.051272    0.032338   -2.506701
C       2.248357   -0.147974   -1.261948
O       2.889808   -0.583701   -0.083142
C       0.617281   -2.068506   -1.203931
C      -0.809976   -2.546686   -1.063468
O      -1.325552   -3.364123   -1.784877
H       0.721476    1.955225   -0.112770
H      -0.962870    1.595257   -0.570914
H      -0.451466    1.454486    1.124925
H       0.201269    1.110928   -2.605664
H       0.451874   -0.443131   -3.406633
H      -1.024138   -0.166282   -2.476375
H       2.760491   -0.618417   -2.107542
H       2.342306    0.942977   -1.390164
H       2.286553   -0.360717    0.637785
H       1.055498   -2.529497   -2.093064
H       1.182978   -2.408754   -0.327742
H      -1.368998   -2.088612   -0.220749
