14

O      -0.012731    0.062483   -0.329967
C       0.002423    1.207118    0.014663
C      -1.143484    2.259333    0.203005
C      -0.064618    3.326689   -0.043164
C       0.956575    3.348287    1.036657
C       1.084659    2.260828   -0.005407
O       1.893249    2.546960   -1.127343
C       1.245416    3.589653   -1.751735
N       0.167583    4.062496   -1.257418
H      -1.864123    2.155180   -0.611329
H      -1.670256    2.306330    1.158957
H       1.725936    4.109372    0.972752
H       0.666793    3.071809    2.044497
H       1.739278    3.942844   -2.649180
