21

C      -0.435164    1.377630    0.329976
C      -0.586160   -0.009582   -0.267485
O      -1.321106   -0.810803    0.658647
C      -1.565232   -2.138998    0.254143
C      -3.038093   -2.314364   -0.201548
N      -4.020052   -1.831178    0.763216
C      -4.235587   -2.718017    1.901585
C      -3.257946   -1.641824   -1.496476
N      -3.402173   -1.117697   -2.516251
H       0.142604    2.016686   -0.344073
H      -1.414710    1.838422    0.486222
H       0.080980    1.329359    1.293033
H      -1.106629    0.038446   -1.232305
H       0.400510   -0.466617   -0.440704
H      -0.877425   -2.458812   -0.539814
H      -1.400817   -2.787330    1.123103
H      -3.216572   -3.385530   -0.365156
H      -3.714574   -0.915619    1.079121
H      -4.964737   -2.255343    2.571922
H      -4.663158   -3.663589    1.550148
H      -3.335498   -2.952159    2.493642
