15

O      -0.048502    0.037530    0.440988
C      -0.084559    1.200617    0.107782
C      -1.284658    2.057664   -0.140607
C      -0.927766    3.347074   -0.138764
C       0.562714    3.450536   -0.033123
C       1.307637    3.690080    1.328453
C       1.918011    2.274283    1.150942
N       1.026657    2.048891   -0.024147
H      -2.279190    1.641770   -0.225202
H      -1.580417    4.203799   -0.257103
H       0.988346    4.040826   -0.853947
H       2.005573    4.528090    1.342147
H       0.626572    3.767511    2.177324
H       2.974782    2.261976    0.872780
H       1.746988    1.552007    1.952429
