22

C      -0.297766    1.340628   -0.234857
O      -0.298505   -0.062519   -0.330450
C       0.774289   -0.559054   -1.101803
C       0.685524   -2.079214   -1.123276
C       1.824074   -2.732880   -1.913732
O       3.107485   -2.357103   -1.408672
C       1.671513   -4.238629   -1.969531
C       1.119226   -4.892847   -3.182553
N       2.544669   -5.028756   -2.845314
H       0.624081    1.719199    0.235256
H      -0.396424    1.819174   -1.222692
H      -1.152493    1.628645    0.382320
H       0.725988   -0.158517   -2.130355
H       1.740538   -0.242863   -0.679895
H       0.697617   -2.449172   -0.089265
H      -0.276654   -2.380539   -1.553313
H       1.821567   -2.344961   -2.941790
H       3.215576   -2.768498   -0.543421
H       1.488239   -4.708562   -1.002236
H       0.536549   -5.805285   -3.094670
H       0.834407   -4.254532   -4.015785
H       3.107025   -4.399656   -3.414621
