17

O       0.408509    1.013285   -0.786167
C       0.116813   -0.153377   -0.059351
C       0.137981   -0.100165    1.500053
C      -1.305290   -0.704976    1.516307
N      -2.379133    0.101466    2.051573
C      -2.747165    1.087087    1.129398
O      -3.374308    2.093872    1.363647
N      -2.288600    0.660828   -0.108155
C      -1.401172   -0.475003   -0.028310
H       1.352737    1.188605   -0.726431
H       0.683562   -1.015930   -0.438165
H       0.921262   -0.677397    1.996750
H       0.151900    0.927364    1.872131
H      -1.358991   -1.742562    1.849214
H      -2.369850    0.394167    3.016472
H      -2.204915    1.343882   -0.842500
H      -1.728694   -1.301893   -0.665531
