18

C      -0.042423    1.511197    0.054782
N       0.103400    0.063457   -0.012509
C       0.787871   -0.541380   -1.145900
C       2.316532   -0.585962   -0.867247
C       2.512616    0.015980    0.518573
C       1.115264   -0.612901    0.865342
C       0.742443   -0.894004    2.222252
C       0.448597   -1.125881    3.365222
C       1.369357   -1.639253   -0.325587
H       0.868247    2.080098   -0.187396
H      -0.825484    1.815744   -0.647559
H      -0.370033    1.786384    1.062223
H       0.368431   -0.568163   -2.143847
H       3.046249   -0.698644   -1.658495
H       3.297173   -0.506347    1.070073
H       2.630743    1.096841    0.642000
H       0.180538   -1.332915    4.371665
H       1.321890   -2.716066   -0.384710
