22

C       0.025535    1.435675    0.070018
N       0.004632   -0.017420    0.069574
C       1.304276   -0.653180    0.131218
C      -1.205617   -0.667330    0.012958
O      -2.260675   -0.056089   -0.036988
C      -1.185515   -2.199049    0.014665
C      -2.596101   -2.785040   -0.051313
C      -2.584743   -4.307526   -0.050333
O      -3.930496   -4.752703   -0.113159
H       0.588479    1.814557   -0.792812
H      -1.001140    1.793364    0.021281
H       0.504449    1.815252    0.981887
H       1.839596   -0.356431    1.043650
H       1.219191   -1.737202    0.127211
H       1.923423   -0.356498   -0.726558
H      -0.588213   -2.556547   -0.834468
H      -0.670464   -2.555644    0.916421
H      -3.188234   -2.427520    0.795745
H      -3.106355   -2.427981   -0.950252
H      -2.001915   -4.679361   -0.910491
H      -2.084777   -4.678838    0.860701
H      -3.930134   -5.714148   -0.112853
