12

O      -0.097460    1.277488    0.010149
N       1.031642    2.085425    0.003405
C       2.189410    1.483323   -0.011214
C       2.444326    0.079293   -0.021281
C       1.338018   -0.709004   -0.014655
N       1.096103   -2.051799   -0.019543
C      -0.232512   -2.093211   -0.006628
N      -0.943376   -0.904325    0.006735
C       0.036676   -0.038396    0.001742
H       3.012300    2.191496   -0.015495
H       3.458976   -0.300099   -0.033306
H      -0.769354   -3.034605   -0.006461
