23

C      -0.651898    1.445899    0.156973
C       0.068788    0.126808   -0.035175
O       1.261514    0.240955   -0.848506
C       2.022537   -0.587942    0.062839
C       3.219445    0.145713    0.651294
C       2.585599    1.147218    1.636078
C       1.384200    0.377972    2.228165
C       0.869144   -0.558411    1.111284
C       0.296088   -1.869286    1.628646
H      -0.016935    2.200100    0.628390
H      -0.973094    1.834828   -0.814810
H      -1.546206    1.306527    0.774609
H      -0.626449   -0.591831   -0.497776
H       2.265037   -1.557637   -0.389254
H       3.852373   -0.575595    1.184268
H       3.831149    0.619014   -0.122360
H       3.282952    1.491010    2.404918
H       2.245109    2.029882    1.087084
H       1.722080   -0.239746    3.069261
H       0.604866    1.039226    2.619583
H      -0.584323   -1.694157    2.258671
H      -0.009475   -2.526295    0.807601
H       1.029912   -2.410181    2.236764
