17

N      -0.031300    1.474452    0.235636
C      -0.037320    0.071585   -0.055266
C       0.809923   -0.548309   -1.169550
C       0.029477   -1.815947   -1.582896
O      -1.308054   -1.679838   -1.058605
C      -1.312304   -0.706552   -0.075881
C      -0.374191   -0.838461    1.138093
C       0.360302   -2.030776    1.430355
N       0.964045   -2.990304    1.666366
H       0.880399    1.768812    0.574407
H      -0.227615    2.014012   -0.603093
H       0.864720    0.175210   -1.989834
H       1.831665   -0.785767   -0.859931
H      -0.054121   -1.934218   -2.666343
H       0.485918   -2.717849   -1.166602
H      -2.286468   -0.263654    0.092694
H      -0.706174   -0.286121    2.010849
