19

O      -0.065811    1.400776    0.009991
C       0.009100   -0.025115   -0.003668
C       0.670622   -0.598610    1.289840
C      -0.021783   -1.951012    1.546415
C      -1.420680   -1.782692    0.965691
C      -2.167237   -0.518159    1.306876
C      -1.400473   -0.610761    0.011600
C       0.728753   -0.481980   -1.200884
C       1.346244   -0.835941   -2.170442
H       0.809400    1.741169   -0.205183
H       1.754713   -0.685136    1.191225
H       0.467471    0.114629    2.093409
H       0.498256   -2.751295    1.008116
H      -0.022655   -2.220375    2.608237
H      -1.994756   -2.673040    0.735038
H      -3.248096   -0.543691    1.224463
H      -1.802684    0.129974    2.095971
H      -1.942996   -0.617778   -0.925467
H       1.880785   -1.150109   -3.032819
