21

C       0.084163    1.441056   -0.007370
O      -0.205564    0.076030   -0.189361
C       0.605132   -0.561646   -1.178554
C       2.013497   -0.843215   -0.701747
C       2.247820   -2.146754   -0.565760
C       1.061875   -2.994570   -0.944542
C       0.056816   -1.965246   -1.476511
C      -1.425725   -2.213546   -1.455270
C      -0.687763   -2.212087   -2.767916
H       1.084944    1.608574    0.418307
H       0.017573    2.002739   -0.953693
H      -0.657803    1.839314    0.689734
H       0.598135    0.075794   -2.079324
H       2.722967   -0.053721   -0.482120
H       3.179188   -2.579373   -0.215108
H       1.320991   -3.748391   -1.699114
H       0.679922   -3.547669   -0.074943
H      -1.770156   -3.164705   -1.062066
H      -2.061941   -1.369798   -1.216735
H      -0.836978   -1.371693   -3.438937
H      -0.527876   -3.160409   -3.271624
