16

C       0.036473    1.509325    0.095851
C       0.034365    0.015542   -0.003828
C      -0.919832   -0.910474    0.773944
O      -1.068537   -2.129907    0.047554
C       0.350123   -2.048606   -0.212584
C       0.552800   -1.041068    0.976311
C       0.479501   -0.843204   -1.200781
C      -0.317835   -0.857594   -2.421585
N      -0.944424   -0.851052   -3.392802
H       1.030191    1.925222   -0.103077
H      -0.664252    1.948127   -0.622601
H      -0.265047    1.834490    1.097084
H      -1.726066   -0.568069    1.408520
H       0.828656   -3.006166   -0.400023
H       1.212027   -0.996496    1.831537
H       1.529308   -0.649176   -1.437523
