20

C      -0.063422    1.587535   -0.127098
C      -0.062872    0.082572   -0.059927
C       0.809798   -0.939007   -0.836692
C       1.945348   -0.942638    0.219347
C       0.625162   -0.856104    0.998716
C      -0.145456   -0.890767    2.298156
C      -1.577901   -0.925642    1.639915
C      -1.219106   -0.904911    0.134736
N      -0.045259   -1.874672    0.043369
H       0.956733    1.987707   -0.112007
H      -0.545729    1.942855   -1.044795
H      -0.605227    2.021487    0.721231
H       0.892837   -1.095903   -1.913744
H       2.505829   -1.876052    0.317370
H       2.602277   -0.070193    0.252299
H       0.061316   -1.781747    2.895658
H       0.016073   -0.005849    2.919729
H      -2.121197   -1.837606    1.901523
H      -2.193790   -0.069835    1.931818
H      -2.040019   -1.030184   -0.576561
