13

O      -0.170237    1.050478   -0.638256
C       0.025411   -0.135134   -0.064907
N       1.234749   -0.599201    0.006738
C       1.502993   -1.874219    0.428064
N       0.790290   -2.947244    0.367476
C      -0.529096   -2.929490   -0.084583
N      -1.077395   -3.775828   -0.858278
C      -1.378843   -1.871692    0.539270
N      -1.130482   -0.618329    0.505994
H       0.693032    1.341272   -0.968521
H       2.515227   -1.992269    0.814702
H      -0.375548   -4.441932   -1.194058
H      -2.274409   -2.196298    1.070798
