19

C       0.059946    1.216000   -0.413085
O      -0.135415    0.162358    0.507112
C      -1.347477   -0.498671    0.327641
C      -1.462584   -1.566113   -0.739952
C      -1.429514   -1.942024    0.734569
C      -0.179549   -2.614300    1.268075
C      -2.723421   -2.414082    1.370186
H       1.032618    1.662007   -0.191801
H       0.055004    0.855005   -1.451718
H      -0.716714    1.989851   -0.313731
H      -2.222496    0.130254    0.507960
H      -2.393873   -1.663469   -1.288708
H      -0.568754   -1.768787   -1.321193
H       0.721750   -2.187975    0.824169
H      -0.104495   -2.489678    2.354614
H      -0.198809   -3.689600    1.056555
H      -2.878910   -3.484396    1.190089
H      -2.709693   -2.257192    2.455174
H      -3.590250   -1.881491    0.965999
