18

N      -1.015750   -0.447741   -1.326135
C      -0.537619    0.416440   -0.724456
C       0.077235    1.480651    0.048882
C      -0.073734    1.447603    1.603599
C       1.410244    1.867935    1.723857
C       1.775320    3.297795    2.183331
O       2.616892    2.793122    3.236779
C       2.327696    1.427892    2.875313
C       1.626203    1.448863    0.250389
H      -0.244171    2.444952   -0.353922
H      -0.826667    2.108733    2.038083
H      -0.240890    0.429732    1.965294
H       2.339355    3.899650    1.457956
H       0.941744    3.897419    2.573453
H       1.832201    0.880628    3.688426
H       3.230311    0.879368    2.574446
H       2.017064    0.431376    0.168023
H       2.217931    2.110882   -0.385506
