16

O       0.074747    1.326314    0.214161
C       0.066699   -0.015339    0.001416
C       0.077472   -0.785481   -1.146763
C       0.058899   -2.136161   -0.695604
C       0.038039   -2.129833    0.680632
N       0.043021   -0.820798    1.113083
C       0.017833   -3.475657    1.215211
C       0.026123   -4.330581    0.167767
C       0.053061   -3.568529   -1.151877
H       0.095465    1.765767   -0.641001
H       0.095984   -0.405884   -2.157247
H       0.031882   -0.474551    2.056425
H      -0.000489   -3.746512    2.263196
H       0.015675   -5.410329    0.225975
H      -0.817480   -3.820998   -1.772467
H       0.937542   -3.836692   -1.745606
