16

O      -0.064052   -0.036333   -0.030270
C       0.021994    1.153389    0.006920
O      -1.085086    1.965254    0.187051
C      -0.795728    3.400164    0.117651
C       0.586327    3.438952   -0.533171
N       1.986437    3.885135    0.029450
C       1.686715    2.906442    1.175545
C       1.173082    2.123389   -0.064109
C       2.489235    2.615899   -0.718182
H      -1.574877    3.845440   -0.503321
H      -0.865019    3.821445    1.122753
H       0.530530    3.613579   -1.610209
H       2.582732    2.521655    1.666120
H       0.974048    3.278445    1.910965
H       2.505307    2.722510   -1.804545
H       3.436518    2.241773   -0.326680
