13

O       0.038632   -0.041953   -0.001247
C       0.000726    1.167470    0.009091
C       1.220258    1.996046    0.001906
C       1.206928    3.359809    0.013486
N       2.364176    4.094531    0.006272
C       3.491314    3.451831   -0.012141
C       3.648279    1.981999   -0.026304
O       4.706900    1.388276   -0.043461
N       2.413720    1.335383   -0.017445
H      -0.950306    1.733542    0.024991
H       0.271686    3.906979    0.028889
H       4.418524    4.020707   -0.018074
H       2.392107    0.320341   -0.025664
