14

N      -0.130320    1.414864   -0.241596
C      -0.013255   -0.009132   -0.016513
C       0.825278   -0.428213    1.179327
N       1.398881    0.421064    1.949330
C       2.146367   -0.078732    3.020399
O       2.730613    0.622448    3.812863
C       2.173728   -1.558765    3.122228
N       1.584990   -2.373271    2.329435
O       0.861517   -1.773806    1.287197
H      -0.517649    1.859694    0.585715
H       0.795285    1.819863   -0.349166
H      -1.008951   -0.452366    0.109823
H       0.413358   -0.495489   -0.902672
H       2.734647   -2.019951    3.930393
