18

C      -1.639926    0.273858    0.604113
C      -0.879156    1.007509    0.031826
C       0.031629    1.951678   -0.609117
C       1.436671    1.981619    0.018050
C       2.496340    1.125931   -0.675991
C       2.115855   -0.269724   -0.864835
C       1.797176   -1.414983   -1.039492
C       1.873938    3.235660    0.688364
N       1.551304    2.034363    1.476375
H      -2.303220   -0.398624    1.089080
H       0.117649    1.714809   -1.676123
H      -0.412245    2.952971   -0.554669
H       2.726644    1.572171   -1.653474
H       3.413410    1.180142   -0.079298
H       1.512258   -2.428171   -1.178492
H       2.924166    3.517748    0.694898
H       1.183925    4.075887    0.695683
H       0.627799    2.104755    1.897688
