19

N       0.047693    1.214068    0.386491
C       0.087382   -0.158559   -0.067270
C      -1.264876   -0.899964   -0.238965
O      -0.874857   -1.259176   -1.618901
C       0.276103   -0.507198   -1.541312
N       1.119793   -0.200119   -2.418325
C      -1.569730   -2.089586    0.608161
C      -2.429014   -1.912931    1.839209
C      -2.969278   -2.653970    0.646656
H       0.993808    1.569814    0.482723
H      -0.400693    1.799984   -0.312807
H       0.774527   -0.722855    0.570343
H      -2.115357   -0.209051   -0.274606
H       0.876417   -0.599499   -3.327031
H      -0.754040   -2.803861    0.679697
H      -2.162058   -2.477027    2.725267
H      -2.818943   -0.922131    2.046299
H      -3.726595   -2.165602    0.042562
H      -3.078505   -3.730368    0.711441
