20

C      -0.047056    1.574642   -0.017095
C       0.040936    0.047885    0.000676
C       0.799043   -0.565713   -1.198698
C       1.308852   -1.942039   -0.706229
C       1.507120   -1.761365    0.791669
C       2.253033   -0.520605    1.257364
C       0.743385   -0.542242    1.222353
O       0.034560   -0.564314    2.427039
H       0.950916    2.027851   -0.013838
H      -0.574613    1.933679   -0.906871
H      -0.590589    1.950472    0.857403
H      -0.979115   -0.360245    0.023272
H       0.169426   -0.645636   -2.089166
H       1.643266    0.077880   -1.471417
H       0.549985   -2.714908   -0.877778
H       2.216244   -2.259817   -1.231256
H       1.541385   -2.632521    1.436016
H       2.696959   -0.583124    2.244935
H       2.817630    0.075052    0.546502
H       0.095454    0.311357    2.823484
