19

C      -0.455952    3.287672    2.636421
C      -0.282498    2.726778    1.587273
C      -0.041363    2.047514    0.316766
C       1.427650    2.065957   -0.104540
C       2.367961    1.304287    0.828988
C       2.097156   -0.130521    0.870388
C       1.854955   -1.307933    0.891683
C       1.731992    2.053886   -1.579564
C       1.957939    3.309670   -0.768166
H      -0.624235    3.781969    3.560892
H      -0.380297    1.005970    0.388765
H      -0.647734    2.517445   -0.467055
H       3.404477    1.469214    0.510647
H       2.283916    1.721734    1.840700
H       1.651526   -2.349636    0.919430
H       2.599135    1.494675   -1.914042
H       0.900324    2.035778   -2.275930
H       1.275314    4.141190   -0.906466
H       2.979681    3.608262   -0.558848
