16

O      -0.041385    0.103653    0.733646
C      -0.056471    1.153051    0.153950
C      -1.352356    1.924626   -0.107437
N      -1.294523    3.078029   -1.000333
C      -0.050993    3.804948   -0.808169
C       1.169700    2.902097   -1.048811
O       1.125339    1.725423   -0.204759
C       1.268334    2.502549   -2.452597
C       1.312647    2.191333   -3.612471
H      -2.092566    1.204801   -0.462907
H      -1.695304    2.251108    0.884654
H      -1.344834    2.766586   -1.965903
H      -0.007156    4.662896   -1.484398
H      -0.013119    4.181540    0.221122
H       2.090491    3.414794   -0.749123
H       1.376473    1.908468   -4.634803
