21

C      -0.033236    1.610041    0.086463
C      -0.007694    0.083546   -0.027488
C      -1.406151   -0.541320    0.008729
C      -1.385908   -2.070029   -0.117345
C      -2.782078   -2.686671   -0.034700
C      -2.922298   -4.216537    0.096228
O      -3.568588   -4.058333    1.401247
C      -3.447712   -2.691772    1.347712
O      -3.771868   -1.901717    2.175786
H       0.977484    2.029027    0.063723
H      -0.598696    2.059370   -0.737512
H      -0.505757    1.927775    1.022241
H       0.497587   -0.207716   -0.958276
H       0.595974   -0.334927    0.788685
H      -1.912603   -0.265399    0.941375
H      -2.014052   -0.120336   -0.804389
H      -0.926739   -2.360580   -1.071321
H      -0.754739   -2.498071    0.672764
H      -3.442013   -2.254860   -0.793709
H      -3.591163   -4.713805   -0.608788
H      -1.986934   -4.772237    0.196976
