17

C       0.072259    1.523383   -0.157269
C      -0.879638    0.743605    0.752104
C      -1.205294   -0.646753    0.201797
N      -2.165616   -1.323315    1.068044
C      -2.062865   -2.546105    1.271694
O      -2.927900   -3.253046    2.093556
C      -2.473278   -4.518658    2.064759
N      -1.445883   -4.731481    1.338251
O      -1.150965   -3.452539    0.789626
H       0.290616    2.512776    0.255197
H       1.025905    0.998311   -0.282529
H      -0.358371    1.667096   -1.154712
H      -0.442088    0.634250    1.751617
H      -1.818284    1.293110    0.885308
H      -1.656592   -0.543051   -0.794826
H      -0.280135   -1.225718    0.071986
H      -2.990999   -5.266643    2.644610
