18

C      -0.180141    1.482351    0.159465
C      -0.024286   -0.018197    0.010965
C       1.345433   -0.587888   -0.328826
C       0.786583   -0.782108    1.047918
C      -1.179144   -0.737787   -0.559330
N      -1.305153   -2.010264   -0.791638
C      -2.578665   -2.145880   -1.326381
C      -3.165809   -0.930357   -1.391336
O      -2.276018   -0.011726   -0.900046
H       0.728776    1.912499    0.589030
H      -0.359257    1.963752   -0.806996
H      -1.018191    1.734639    0.816646
H       1.365283   -1.446697   -0.988912
H       2.150696    0.125602   -0.468083
H       1.203399   -0.203605    1.865544
H       0.431601   -1.771194    1.311280
H      -2.972570   -3.105239   -1.622393
H      -4.116608   -0.551413   -1.722546
