20

O      -0.041308    1.429943    0.062661
C       0.010655    0.036655    0.015771
C       0.901033   -0.716409    1.008734
C       0.496741   -2.148736    0.561205
N      -0.487671   -1.904029   -0.531736
C      -1.323324   -0.756930    0.024859
C      -2.112520   -0.274306   -1.189412
C      -0.952684   -0.279993   -2.231255
C       0.163915   -0.776218   -1.318062
H       0.855072    1.771921    0.143335
H       1.965490   -0.498393    0.864884
H       0.644036   -0.488883    2.047529
H       1.334598   -2.733315    0.171863
H       0.020670   -2.727571    1.356980
H      -1.861379   -0.950730    0.955533
H      -2.916556   -0.966835   -1.447297
H      -2.537568    0.719044   -1.029014
H      -1.132777   -0.962294   -3.064633
H      -0.736446    0.714978   -2.628280
H       1.142891   -0.991270   -1.753922
