22

C      -0.011983    1.602940    0.165220
C       0.051096    0.075527    0.062297
C       0.700477   -0.452455   -1.231450
C       2.181413   -0.060658   -1.355625
C       0.557180   -1.974913   -1.325076
C      -0.865518   -2.581716   -1.541287
N      -0.355152   -3.166907   -2.783556
C       0.901852   -2.622911   -2.695200
O       1.855515   -2.647110   -3.429330
H       0.985076    2.051954    0.191879
H      -0.548341    2.034623   -0.687472
H      -0.535174    1.910654    1.075923
H       0.601190   -0.328732    0.923452
H      -0.968149   -0.324735    0.139196
H       0.158302   -0.015654   -2.084246
H       2.748006   -0.410426   -0.483757
H       2.625730   -0.511683   -2.246122
H       2.304698    1.023796   -1.420033
H       1.098459   -2.459509   -0.505135
H      -1.190828   -3.316047   -0.798042
H      -1.656455   -1.838856   -1.692320
H      -0.807355   -3.682533   -3.523860
