20

O      -0.275784    0.657081   -0.904128
C       0.005227    1.242827    0.120656
N       1.250411    1.346101    0.653978
C       2.444041    0.799431    0.020223
C       3.517548    1.855181   -0.134514
C       4.420173    2.341153    0.974683
C       4.854105    1.198718    1.905468
C       5.447392    0.439527    0.674927
C       4.993998    1.589205   -0.236512
H      -0.749243    1.765890    0.742453
H       1.365399    1.887288    1.496509
H       2.810908   -0.058853    0.593594
H       2.123990    0.422703   -0.954256
H       3.204479    2.669915   -0.784907
H       4.496340    3.395743    1.212981
H       5.629527    1.504869    2.610409
H       4.061812    0.695404    2.470069
H       6.535163    0.364107    0.732924
H       5.048776   -0.555245    0.453115
H       5.570645    1.980883   -1.066183
