22

C      -0.837659    1.305707   -0.097234
C      -0.403833   -0.156105   -0.219876
C       0.773480   -0.428733   -1.191755
C       0.422541   -0.028731   -2.637150
C       1.968309    0.315603   -0.753647
C       2.957501    0.899356   -0.393307
N       0.963000   -1.897941   -1.197094
C       2.247916   -2.463587   -1.588932
C       1.786428   -2.529854   -0.173381
H      -0.003619    1.943431    0.210714
H      -1.230851    1.696053   -1.040753
H      -1.629220    1.402709    0.651972
H      -0.111856   -0.535347    0.765813
H      -1.238403   -0.778471   -0.560242
H       0.250785    1.046362   -2.720680
H       1.240747   -0.295093   -3.311318
H      -0.476240   -0.565603   -2.952827
H       3.824670    1.426143   -0.078622
H       2.194628   -3.335911   -2.234307
H       3.069908   -1.781877   -1.796181
H       2.309741   -1.889781    0.533322
H       1.388289   -3.451800    0.240937
