22

C      -0.141243    1.553477   -0.080780
C       0.016606    0.030524   -0.069001
C       0.713869   -0.549394    1.176272
C       0.841518   -2.073885    1.078924
C       2.103576    0.070817    1.392874
O       2.862327   -0.124958    0.210309
O       0.031102   -0.149746    2.393625
C      -1.208927   -0.604228    2.639176
N      -1.809664   -0.244123    3.692363
H       0.828605    2.053638   -0.155407
H      -0.737352    1.865698   -0.943370
H      -0.641141    1.911973    0.823460
H      -0.967894   -0.443694   -0.163494
H       0.596005   -0.289632   -0.940345
H       1.592765   -2.316877    0.323625
H       1.165672   -2.488058    2.038230
H      -0.097216   -2.554902    0.790610
H       1.983079    1.135415    1.630875
H       2.569142   -0.414803    2.262355
H       3.745669    0.223227    0.358205
H      -1.609046   -1.277491    1.873324
H      -2.730222   -0.677793    3.725701
