16

C      -0.015936    1.411929   -0.072084
O       0.024455   -0.004179   -0.001163
C       0.629500   -0.577171    1.062051
C       1.229363    0.127964    2.116454
C       1.809614   -0.614219    3.136071
N       1.836416   -1.948050    3.182903
C       1.259242   -2.591948    2.168410
O       1.283124   -3.941105    2.210064
C       0.643938   -1.969700    1.087138
H       0.992287    1.841870   -0.107534
H      -0.542219    1.651189   -0.997111
H      -0.561574    1.841827    0.776498
H       1.250336    1.207724    2.153555
H       2.283588   -0.100585    3.969189
H       1.748392   -4.166782    3.027703
H       0.190529   -2.543641    0.290150
