20

C      -0.035386    1.565845    0.000084
C       1.487385    1.927182    0.052924
N       2.203189    0.666864   -0.250851
C       1.783905    0.280391   -1.640934
C       0.482849   -0.534012   -1.401564
O       0.878242   -1.873418   -1.091323
C       1.651773   -1.747168    0.117745
C       1.413040   -0.306116    0.567506
C       0.022622    0.031087   -0.039708
H      -0.573417    1.926297    0.881152
H      -0.537546    1.984761   -0.877972
H       1.782416    2.706493   -0.653508
H       1.774270    2.259498    1.055751
H       1.647669    1.170219   -2.260702
H       2.536056   -0.355924   -2.113370
H      -0.235660   -0.561399   -2.221198
H       1.287205   -2.472560    0.853263
H       2.713049   -1.946818   -0.076498
H       1.555548   -0.127992    1.634463
H      -0.840347   -0.495759    0.368456
