23

C      -0.067484    1.530819    0.078024
C      -0.031526   -0.007541   -0.055195
C      -1.403982   -0.514072   -0.115905
C      -2.552852   -0.868048   -0.153168
C       0.828396   -0.502274   -1.257176
C       2.251443    0.076955   -1.211011
C       0.888175   -2.020381   -1.311957
C      -0.148842   -2.830222   -2.043287
C       1.247344   -2.718948   -2.601708
H       0.923764    1.934141    0.296870
H      -0.433813    1.989388   -0.846120
H      -0.740848    1.824334    0.887132
H       0.432973   -0.411520    0.856949
H      -3.559615   -1.203610   -0.185734
H       0.339295   -0.149356   -2.176048
H       2.264115    1.164418   -1.318839
H       2.747260   -0.173229   -0.264954
H       2.854007   -0.345743   -2.019939
H       1.291747   -2.472920   -0.407654
H      -0.462859   -3.774438   -1.612508
H      -0.942041   -2.289232   -2.545938
H       1.389677   -2.104114   -3.485210
H       1.897002   -3.586260   -2.558832
