17

O       0.038720    1.368167   -0.024112
C       0.010443   -0.035388   -0.024839
C       0.539494   -0.685840    1.302645
C      -0.788116   -1.331001    1.758627
C      -1.262163   -2.060981    0.466004
C      -1.429321   -0.591338    0.021841
N      -1.759820   -0.198822    1.451405
C      -0.848556   -1.950040    3.064876
N      -0.905182   -2.460835    4.100317
H      -0.551450    1.637736    0.693976
H       0.563272   -0.363732   -0.907452
H       1.324902   -1.429114    1.153333
H       0.890892    0.077326    1.998035
H      -0.549959   -2.708875   -0.053493
H      -2.217873   -2.570350    0.605956
H      -2.113876   -0.271586   -0.761730
H      -2.701175   -0.529644    1.666160
