24

C      -0.357138    1.460516   -0.014182
C      -0.006940   -0.027245    0.003532
C       0.877317   -0.475223   -1.183756
C       1.626487   -1.749309   -0.703607
C       1.194951   -1.951809    0.767565
C       0.731591   -0.562503    1.266963
C       1.950678    0.302409    1.639947
C      -0.199177   -0.675900    2.480051
H       0.541438    2.086379   -0.007900
H      -0.923710    1.713498   -0.916943
H      -0.971300    1.745580    0.846887
H      -0.949378   -0.591367   -0.052087
H       0.278289   -0.653754   -2.081787
H       1.587859    0.317912   -1.442631
H       1.386796   -2.624369   -1.313982
H       2.709294   -1.610498   -0.777615
H       0.347741   -2.646718    0.816092
H       1.989143   -2.376699    1.390206
H       2.644995    0.425433    0.802677
H       1.649638    1.301690    1.969884
H       2.506511   -0.160853    2.462553
H       0.315232   -1.138326    3.330171
H      -0.553793    0.306896    2.810221
H      -1.077814   -1.288736    2.249222
