18

C      -0.072674    1.528023   -0.077129
C       0.029884    0.014489    0.004940
O       0.664462   -0.439484   -1.176097
C       0.618447   -1.843622   -1.335923
C       0.944477   -2.595847   -0.078553
C       1.052727   -1.997344    1.102563
C       0.800499   -0.506912    1.249216
C       2.062224    0.210579    1.471492
N       3.056251    0.770330    1.657854
H       0.920387    1.975642   -0.166642
H      -0.661937    1.810256   -0.952848
H      -0.558510    1.931819    0.816316
H      -0.980009   -0.423600    0.074343
H      -0.373151   -2.159166   -1.710181
H       1.343135   -2.084737   -2.122106
H       1.085199   -3.668914   -0.175055
H       1.318814   -2.547948    1.998666
H       0.173226   -0.331047    2.133496
