19

C       0.221813    1.730821    0.549967
C       0.120599    0.236853    0.290689
C       0.683581   -0.446548   -0.986480
C       1.372317   -1.433143   -0.043772
C       2.299200   -0.775570    0.894159
C       3.236816    0.369330    0.528544
C       3.512070    1.266333    1.651584
N       3.730958    1.972576    2.539360
N       0.859826   -0.716814    1.209359
H       1.211850    2.152094    0.366214
H      -0.488160    2.263743   -0.091981
H      -0.040021    1.944743    1.590953
H      -0.929561   -0.048603    0.402660
H      -0.087605   -0.900805   -1.610124
H       1.340114    0.143209   -1.634973
H       1.321578   -2.513450   -0.137896
H       2.770960   -1.454757    1.601789
H       4.188202   -0.068238    0.201294
H       2.866694    0.961991   -0.310416
