20

C       0.655670    0.926498   -0.353604
N      -0.293215   -0.135358   -0.057731
C       0.200915   -1.090980    0.920217
C      -1.633669    0.372304    0.228826
C      -2.281059    0.524756   -1.136902
O      -2.379441    1.568840   -1.739490
C      -2.764325   -0.797607   -1.785087
C      -3.021051   -0.747620   -3.270276
O      -2.952050   -1.772575   -1.094685
H       1.590135    0.494140   -0.724343
H       0.250787    1.584596   -1.127287
H       0.889661    1.547960    0.530970
H       0.352483   -0.648337    1.922190
H      -0.503187   -1.922450    1.009264
H       1.161281   -1.493188    0.582383
H      -2.186520   -0.372247    0.803759
H      -1.638875    1.332142    0.766570
H      -2.075785   -0.575522   -3.797764
H      -3.465821   -1.685761   -3.602521
H      -3.666185    0.100985   -3.513267
