12

O       0.034127    1.340925    0.211536
C       0.059282   -0.001572   -0.009631
C       0.081617   -0.783609   -1.129519
C       0.102291   -2.156318   -0.680086
C       0.091199   -2.125064    0.685611
O       0.100888   -3.077018    1.657999
N       0.064793   -0.813980    1.100026
H       0.032956    1.782842   -0.642500
H       0.083391   -0.439788   -2.152013
H       0.122666   -3.037980   -1.301348
H       0.114612   -3.938296    1.230586
H       0.052430   -0.501484    2.055058
