18

C       0.013491    1.566614   -0.089161
O       1.327938    1.845596   -0.558787
C       2.245964    0.957691    0.082158
C       1.397782   -0.205969    0.569463
N       1.906748   -1.541806    0.809540
C       1.290784   -0.794857    1.939811
C      -0.169633   -0.987538    2.183804
C      -0.898924   -0.560499    1.143979
C      -0.030203    0.031912    0.062747
H      -0.174800    2.048258    0.883735
H      -0.691565    1.966306   -0.822038
H       2.993214    0.644020   -0.653704
H       2.764263    1.465307    0.908353
H       1.260852   -2.248546    0.459579
H       1.972871   -0.567304    2.752850
H      -0.563518   -1.429926    3.091841
H      -1.975025   -0.656964    1.050880
H      -0.210548   -0.421575   -0.919942
