19

O      -0.030832    0.101056    0.797241
C      -0.031269    1.131445    0.179289
C      -1.313037    1.924494   -0.066811
C      -1.647098    2.421687   -1.486708
C      -0.505727    3.150752   -2.204972
C       0.669771    2.198233   -2.569437
C       1.355707    2.606370   -1.244315
C       0.469733    3.880544   -1.233631
O       1.169613    1.656945   -0.190415
H      -2.117234    1.284999    0.300608
H      -1.264830    2.784783    0.612112
H      -1.973371    1.576856   -2.105461
H      -2.511907    3.088728   -1.396437
H      -0.905693    3.747889   -3.028087
H       0.450629    1.133994   -2.695260
H       1.236352    2.549223   -3.435619
H       2.435165    2.758775   -1.257113
H       0.998898    4.697327   -1.731712
H       0.099372    4.245337   -0.273847
