14

O      -0.158879    1.325579    0.055875
N      -0.006035   -0.078556    0.060082
C      -1.130619   -0.656573    0.071629
C      -1.517833   -2.079155   -0.081433
C      -2.923892   -2.131896    0.606629
O      -3.173365   -0.856564    1.185166
C      -2.600875   -0.255867   -0.009549
C      -2.808800   -1.649406   -0.794875
O      -3.237352   -2.021107   -2.030233
H       0.756533    1.624120    0.049908
H      -0.913638   -2.958621   -0.249957
H      -3.323349   -3.023982    1.070195
H      -2.947935    0.748170   -0.228856
H      -4.192145   -1.888159   -2.080457
