21

C      -0.036948    1.497381   -0.219518
C       0.000461    0.035820    0.242302
C      -1.351186   -0.635374    0.141334
C      -1.911532   -1.285735   -1.137620
C      -0.941014   -1.744165   -2.167158
C      -0.119721   -2.689933   -1.697973
C      -0.431362   -3.046174   -0.261794
C      -1.588193   -2.109912    0.111680
O      -2.565189   -2.586342    0.986970
H       0.944408    1.971323   -0.118649
H      -0.338588    1.566991   -1.269962
H      -0.752549    2.081973    0.369237
H       0.739068   -0.512511   -0.350938
H       0.341239   -0.013147    1.284925
H      -2.136182   -0.126562    0.698049
H      -2.931717   -1.038774   -1.411815
H      -0.911729   -1.337067   -3.172064
H       0.687040   -3.155335   -2.252630
H      -0.742883   -4.096209   -0.158555
H       0.432954   -2.920964    0.402476
H      -2.993316   -3.343088    0.570559
