20

C       0.805964    1.324586    0.132612
C       0.756383   -0.163520   -0.200131
C       0.167529   -0.468407   -1.566023
O      -0.323287    0.380417   -2.274836
C       0.269522   -1.929667   -2.028272
C       1.500356   -2.098472   -2.893040
C       1.480587   -1.537575   -4.286635
N       2.481402   -2.706365   -2.341175
O       3.586934   -2.820837   -3.197292
H       1.436805    1.863238   -0.579651
H      -0.191488    1.768077    0.082028
H       1.207552    1.483591    1.137139
H       1.750238   -0.629008   -0.157930
H       0.156965   -0.716952    0.537824
H       0.339907   -2.603544   -1.172182
H      -0.627151   -2.160855   -2.611979
H       0.840941   -0.652703   -4.325306
H       2.487672   -1.290709   -4.623962
H       1.066935   -2.278615   -4.982039
H       4.225863   -3.276687   -2.639550
