22

C      -0.072208    1.591541    0.009318
C       0.044871    0.064740   -0.003934
C       0.720966   -0.524757   -1.256556
C      -0.006217   -0.147260   -2.547746
O       2.055199   -0.000774   -1.401167
C       0.818094   -2.058485   -1.101400
N       1.637034   -2.639183   -2.145890
C       1.308339   -3.773199   -2.814906
O       0.329810   -4.457867   -2.597928
H       0.897926    2.057311   -0.185735
H      -0.773840    1.951633   -0.748365
H      -0.430297    1.940999    0.982025
H       0.621182   -0.262217    0.874021
H      -0.946741   -0.391376    0.105562
H       0.043594    0.930422   -2.714641
H       0.454359   -0.645034   -3.404040
H      -1.056272   -0.449480   -2.499644
H       2.499754   -0.089194   -0.549975
H       1.241185   -2.288707   -0.111622
H      -0.165174   -2.532256   -1.151387
H       2.452476   -2.112448   -2.420285
H       2.052285   -4.014463   -3.600458
