20

C      -0.724638    0.739666   -0.523674
C       0.451268    0.115686    0.237143
N       1.435560   -0.580320   -0.592514
C       1.059744   -1.703708   -1.319925
C       1.502614   -2.160803   -2.554868
C       2.479171   -1.493355   -3.472991
C       0.820901   -3.388714   -2.720451
N       0.020349   -3.684498   -1.705861
N       0.183951   -2.633269   -0.855768
H      -0.371546    1.490770   -1.238244
H      -1.280987   -0.020167   -1.079939
H      -1.415123    1.231361    0.169421
H       0.993833    0.887021    0.793146
H       0.081168   -0.585795    0.994758
H       1.978155    0.054540   -1.162480
H       2.256280   -0.426584   -3.609567
H       3.514916   -1.562089   -3.115517
H       2.450571   -1.952655   -4.465255
H       0.886723   -4.064681   -3.562418
H      -0.300744   -2.640957    0.023730
