14

N       0.067949    1.384792    0.165298
C       0.015074   -0.009267    0.051367
C      -1.094205   -0.823102    0.033639
N      -0.649977   -2.133725   -0.018421
C       0.706108   -2.172908   -0.030297
C       1.171155   -0.865747    0.007539
C       2.510559   -0.422430   -0.005375
C       3.636520    0.010713   -0.026742
H       0.965379    1.749365   -0.129524
H      -0.675719    1.859720   -0.328453
H      -2.145079   -0.588533    0.061882
H      -1.248461   -2.939516   -0.039601
H       1.251550   -3.100865   -0.072481
H       4.634507    0.371562   -0.030914
