14

O      -0.174336    0.215976    0.527948
C       0.078038    1.138380   -0.199449
C       1.393393    1.892371   -0.150185
O       1.335833    2.907017   -1.144224
C       2.417579    3.682893   -1.251331
N       3.499493    3.550010   -0.497991
N       4.283721    4.551157   -0.990967
C       3.644006    5.201531   -1.977824
N       2.448924    4.678254   -2.175533
H      -0.632373    1.513979   -0.967511
H       1.542170    2.323462    0.848053
H       2.228103    1.204032   -0.334327
H       5.199940    4.704256   -0.604479
H       4.073000    6.033165   -2.516386
