24

C      -0.190893    1.569859    0.188550
C      -0.051780    0.042425    0.082783
C      -1.430326   -0.613906   -0.111316
C      -1.411680   -2.121327    0.018681
C      -1.577100   -2.768549    1.371852
C      -2.675513   -2.874762    0.340665
N       0.847858   -0.476176   -0.961116
C       1.093757    0.268543   -2.188082
C       2.165811    0.095465   -1.165083
H       0.776380    2.076808    0.258352
H      -0.736762    1.988348   -0.663668
H      -0.753978    1.822931    1.092154
H       0.368389   -0.327025    1.027649
H      -2.128543   -0.192767    0.623624
H      -1.813086   -0.326298   -1.100847
H      -0.716890   -2.608629   -0.656831
H      -0.994740   -3.654658    1.599583
H      -1.750693   -2.122910    2.227547
H      -3.581460   -2.300290    0.507798
H      -2.844104   -3.833806   -0.137194
H       1.099140   -0.318898   -3.102644
H       0.679272    1.267956   -2.297992
H       2.454830    0.980975   -0.601677
H       2.970082   -0.620303   -1.317176
