14

O       0.136689    1.391465    0.372725
C       0.037369    0.063467   -0.095384
C      -1.377153   -0.480418   -0.016510
C      -1.591723   -1.946777    0.192843
N      -1.934081   -1.010816    1.253475
C      -2.398823    0.281829   -0.789227
O      -2.141887    1.257037   -1.457083
H      -0.377902    1.928067   -0.243284
H       0.392780   -0.027754   -1.133169
H       0.697700   -0.545409    0.533000
H      -2.435810   -2.448794   -0.272734
H      -0.693157   -2.553496    0.278940
H      -1.209752   -0.978061    1.967503
H      -3.435711   -0.103496   -0.691376
