23

C      -0.121797    1.510804    0.167589
C       0.022806   -0.008450    0.075319
C       0.703752   -0.499076   -1.229506
C       0.747069   -2.040504   -1.263056
O       0.049355    0.036180   -2.394448
C      -1.275669   -0.381147   -2.642043
C       2.078400    0.017051   -1.299532
C       3.215721    0.410276   -1.327054
C       4.587800    0.895282   -1.377107
H       0.857265    1.996766    0.131150
H      -0.715167    1.901097   -0.663437
H      -0.611209    1.796950    1.103475
H       0.614712   -0.384591    0.917094
H      -0.959998   -0.488120    0.156792
H      -0.251055   -2.469704   -1.136682
H       1.164515   -2.383156   -2.213132
H       1.379511   -2.411763   -0.452983
H      -1.351675   -1.456549   -2.853164
H      -1.962907   -0.139780   -1.819042
H      -1.602512    0.165316   -3.530649
H       5.277628    0.111408   -1.708808
H       4.682508    1.736334   -2.072713
H       4.925145    1.240139   -0.393418
