23

C       0.155114    1.602116    0.437899
C      -0.036382    0.111786    0.264441
C       1.082122   -0.742536   -0.326200
C       0.732972   -0.846855    1.122348
O       1.625703   -0.381746    2.135978
C       1.210712   -1.442541    3.039218
C       0.637299   -0.893807    4.331448
C       0.258421   -2.036116    1.956632
C      -1.230733   -2.167703    2.245601
H       1.159464    1.821010    0.810365
H       0.013893    2.135313   -0.508437
H      -0.558225    2.009707    1.162808
H      -1.046628   -0.196635    0.002568
H       0.824492   -1.561885   -0.990778
H       2.015025   -0.240719   -0.565333
H       2.063484   -2.097107    3.261360
H      -0.203820   -0.221131    4.144189
H       0.299393   -1.706483    4.983880
H       1.408489   -0.329362    4.864984
H       0.642428   -2.985899    1.571600
H      -1.662891   -1.230512    2.606943
H      -1.773572   -2.452529    1.337799
H      -1.420665   -2.942194    2.996217
