12

O      -0.011607   -0.064356   -0.000275
C      -0.025933    1.151372    0.010060
C       1.168742    1.961713    0.002829
C       1.311959    3.317760    0.012369
N       2.654112    3.589547   -0.001491
C       3.420572    2.403722   -0.019695
O       4.625882    2.311944   -0.035039
N       2.451654    1.419079   -0.016672
H      -0.972723    1.730538    0.025780
H       0.557721    4.087115    0.027466
H       3.088815    4.496468    0.000475
H       2.645544    0.431993   -0.027268
