19

C       0.294143    1.463449    0.295773
C      -0.351101    0.193016   -0.287438
C       0.419103   -0.395939   -1.377852
C       1.072487   -0.878087   -2.269103
C       1.848188   -1.425613   -3.371198
O       1.232100   -1.192537   -4.623656
C       3.383114   -1.140137   -3.310429
O       3.672539   -2.523044   -3.041540
C       2.298888   -2.904050   -3.233374
H       1.290197    1.246954    0.690902
H       0.395716    2.235979   -0.471245
H      -0.320081    1.862824    1.108012
H      -0.476681   -0.554134    0.506586
H      -1.363011    0.423469   -0.644452
H       0.776168   -0.345955   -4.575267
H       3.775644   -0.808491   -4.279982
H       3.731494   -0.479103   -2.510192
H       1.896086   -3.462506   -2.383081
H       2.141489   -3.461732   -4.164591
