18

C       0.063972    1.583613   -0.093327
C       0.093432    0.057582   -0.006447
C       0.709271   -0.635133   -1.209459
O       2.142964   -0.614833   -1.208471
C       1.473773   -1.808190   -0.780114
C       1.390689   -1.942620    0.725972
C       0.902541   -0.537919    1.201399
C       2.023499    0.306712    1.614479
N       2.893351    0.969962    1.988283
H       1.069959    1.985612   -0.237220
H      -0.558766    1.903713   -0.934536
H      -0.350687    2.025821    0.817526
H      -0.935473   -0.315627    0.087130
H       0.238575   -0.556386   -2.186655
H       1.623661   -2.683007   -1.407196
H       0.647183   -2.705208    0.983422
H       2.338870   -2.228163    1.187546
H       0.249837   -0.633116    2.074064
