17

C       0.045444    1.508200   -0.135719
C       1.287728    0.704457   -0.029652
C       1.894666    0.440029    1.335579
C       1.268720   -0.881343    1.848178
C       0.994932   -0.144061    3.191695
C      -0.143039    0.522987    2.522116
C      -0.161243   -0.478870    1.358064
N      -0.048593    0.040211   -0.021909
N       1.229168    1.156424    2.498806
H      -0.236843    2.123874    0.711222
H      -0.254176    1.898023   -1.104688
H       1.908261    0.537297   -0.907149
H       2.976248    0.554732    1.403336
H       1.683625   -1.871236    1.674805
H       1.231115   -0.323282    4.230515
H      -0.945550    1.118708    2.937000
H      -0.931146   -1.247077    1.436225
