12

O       0.390778    1.033816    0.855938
C       0.036117    0.231187   -0.241230
C      -1.393404   -0.221768   -0.203238
N      -2.140836   -0.101717    0.856055
O      -3.354954   -0.648792    0.545898
N      -3.366774   -1.124130   -0.745408
C      -2.175765   -0.871036   -1.207519
O      -1.749511   -1.170956   -2.439531
H      -0.031569    0.670361    1.642568
H       0.204815    0.822249   -1.148833
H       0.678768   -0.662053   -0.329397
H      -2.472922   -1.594675   -2.920434
