14

C       0.068423    1.484294    0.022890
C      -0.073678   -0.002129    0.002723
C      -1.227589   -0.694308   -0.153665
C      -1.172355   -2.120151   -0.147153
C       0.007577   -2.768842    0.011893
C       1.245504   -2.039787    0.179691
O       2.353439   -2.477877    0.329162
O       1.105942   -0.631823    0.161740
H       0.743230    1.813606   -0.774401
H      -0.900516    1.968752   -0.108038
H       0.506853    1.812441    0.971345
H      -2.162363   -0.165671   -0.279616
H      -2.090522   -2.686308   -0.271611
H       0.088431   -3.847940    0.022120
