17

C       0.018290    1.460611   -0.008536
C       0.023154   -0.030773    0.020677
O       0.145401   -0.698798   -1.229920
C       0.051720   -2.038036   -0.761157
C       1.178179   -2.131166    0.287294
C       0.671810   -0.923519    1.070467
O       1.297683   -0.368217    2.172074
C      -0.844761   -0.957299    0.856972
O      -1.140682   -2.065192    0.025010
H       0.936047    1.841352   -0.467614
H      -0.836621    1.839432   -0.576636
H      -0.034737    1.849269    1.011462
H      -0.001681   -2.746062   -1.583585
H       1.144279   -3.068513    0.848291
H       2.166749   -1.976407   -0.149325
H       1.137720   -0.937951    2.933111
H      -1.611879   -0.668994    1.561373
