20

C      -1.092760    1.528736    1.162057
O      -0.121083    1.545749    2.197942
C       0.551767    0.352345    2.339803
C      -0.053585   -0.888890    2.936439
C       1.139454   -0.224827    3.604125
C       2.466188   -0.492033    2.838642
N       2.189149   -1.374940    1.666473
C       1.917292    0.082667    1.595097
C       2.506467    0.991773    0.565038
H      -1.854570    0.758939    1.342984
H      -1.566790    2.512920    1.154845
H      -0.637825    1.344304    0.179147
H      -0.987629   -0.698218    3.457270
H       0.037555   -1.858765    2.464914
H       1.096600    0.166940    4.611400
H       3.461880   -0.422380    3.258605
H       3.082765   -1.534687    1.199477
H       2.050809    0.835656   -0.420470
H       2.347839    2.038074    0.844116
H       3.584611    0.823606    0.466474
