21

C       0.005132    1.557429   -0.029715
C       0.055094    0.028907   -0.010600
C       0.662727   -0.546979   -1.298875
C       0.900924   -2.030978   -1.212312
C       0.893909   -2.709210   -0.066101
C       0.665109   -2.070771    1.278564
C       0.803091   -0.528113    1.232243
C       2.207237   -0.118862    1.255864
C       3.362528    0.215482    1.276003
H       1.014351    1.980331   -0.060997
H      -0.541557    1.919075   -0.906973
H      -0.495969    1.950558    0.861596
H      -0.972379   -0.351612    0.070533
H      -0.000549   -0.323722   -2.144641
H       1.609873   -0.033997   -1.522130
H       1.093713   -2.553926   -2.146131
H       1.060527   -3.783696   -0.071668
H      -0.339182   -2.325138    1.647065
H       1.366455   -2.479558    2.014605
H       0.322820   -0.115132    2.129266
H       4.382677    0.508872    1.300579
