18

N      -0.013424    1.279950   -0.305608
C      -0.072712    0.020989   -0.336005
O      -1.099138   -0.617246    0.274585
C      -1.042650   -2.018526    0.280773
C      -1.255586   -2.799962   -1.002639
C      -2.288643   -2.823550    0.110411
O      -2.309736   -3.895160    1.008941
C      -0.983331   -4.064303    1.520675
C      -0.282300   -2.693729    1.412155
H       0.805055    1.600561   -0.819046
H       0.630778   -0.662279   -0.828214
H      -1.528166   -2.219139   -1.877247
H      -0.647671   -3.674855   -1.207600
H      -3.262449   -2.377075   -0.046708
H      -1.064639   -4.429499    2.547163
H      -0.449560   -4.823169    0.932283
H       0.792582   -2.797378    1.236865
H      -0.428310   -2.092887    2.315298
