12

O       0.128087    1.301544    0.031718
C       0.086191   -0.037836    0.036008
N       0.147740   -0.660940   -1.136010
C       0.103201   -1.998134   -1.091715
O       0.164200   -2.639325   -2.266680
N       0.005016   -2.768229   -0.016498
C      -0.054468   -2.103989    1.144075
C      -0.018793   -0.724390    1.248253
H       0.200453    1.573616   -0.894393
H       0.232416   -1.958868   -2.949489
H      -0.135230   -2.718331    2.037687
H      -0.067724   -0.201303    2.192632
