18

C       0.004411    1.530730    0.080446
C       0.124480    0.006248    0.027171
N       0.865827   -0.396809   -1.162615
C       1.892091   -1.107847   -1.082006
C       2.760778   -1.565277   -2.236354
C       3.683618   -2.615025   -1.609282
C       3.488593   -2.445467   -0.109717
O       4.095688   -2.938530    0.789104
O       2.424684   -1.597504    0.113335
H       0.988803    1.995334    0.193841
H      -0.447376    1.913871   -0.838728
H      -0.615926    1.835027    0.929002
H       0.571257   -0.374269    0.953133
H      -0.879105   -0.429069   -0.057630
H       2.141015   -1.939795   -3.051767
H       3.321567   -0.708459   -2.621928
H       3.399702   -3.639959   -1.868208
H       4.740783   -2.502428   -1.854881
