23

C      -0.031368    1.603613   -0.018850
C       0.008534    0.073246    0.005354
C       0.703136   -0.520514   -1.223271
C       0.766734   -2.066497   -1.231938
C       1.338545   -2.588935   -2.568098
C       1.314865   -4.106369   -2.697017
O       1.811710   -4.432311   -3.987475
C       1.530478   -2.572089   -0.089752
C       2.178016   -2.974065    0.841107
H       0.979571    2.025346   -0.044476
H      -0.565689    1.975118   -0.900609
H      -0.535114    2.002224    0.867199
H       0.522292   -0.270283    0.910327
H      -1.015402   -0.319507    0.066401
H       0.177176   -0.201275   -2.132138
H       1.724676   -0.126770   -1.298275
H      -0.264083   -2.440697   -1.137439
H       0.754154   -2.161367   -3.390630
H       2.369626   -2.239106   -2.689831
H       1.928370   -4.556828   -1.903731
H       0.283329   -4.474196   -2.563677
H       1.868913   -5.389778   -4.052711
H       2.740117   -3.334723    1.666656
