15

O       0.009178    0.048172    0.576860
C      -0.012733    1.128656    0.072086
O      -1.193023    1.747501   -0.193821
C      -1.194853    3.037510   -0.875094
C      -0.056079    3.872222   -0.286842
C       1.089634    3.069622   -0.905522
O       1.142200    1.780326   -0.224925
C       0.598535    2.844127   -2.325362
C      -0.735594    2.825372   -2.307592
H      -2.205030    3.420726   -0.740414
H      -0.075527    4.895203   -0.667305
H      -0.041633    3.879149    0.805061
H       2.091870    3.481126   -0.797645
H       1.250368    2.628641   -3.161814
H      -1.403155    2.591338   -3.126471
