18

C      -0.198495    1.554519    0.121623
C       0.003066    0.036687    0.090556
C       0.661549   -0.452068   -1.203514
C       2.112424    0.013088   -1.314704
O       2.711891    0.148288   -2.349674
C       0.689438   -1.996740   -1.298861
C       0.852304   -2.562814   -2.691726
O       0.590136   -2.681146   -0.309774
H       0.751313    2.094339    0.034828
H      -0.839719    1.887165   -0.702063
H      -0.669737    1.866499    1.058130
H       0.615698   -0.287823    0.938986
H      -0.956907   -0.474609    0.211560
H       0.147466   -0.073145   -2.094795
H       2.607293    0.188969   -0.333121
H       1.627136   -2.018130   -3.239669
H       1.083761   -3.627368   -2.640724
H      -0.085020   -2.425197   -3.244669
