18

C       0.366031    1.461928    0.184155
C      -0.139722    0.041810   -0.129195
C       0.398106   -0.493475   -1.375873
C       0.860745   -0.906475   -2.408224
C       1.414663   -1.446695   -3.646245
C       1.889362   -2.883026   -3.503652
C       2.980591   -3.415532   -4.326502
O       3.188742   -3.078645   -2.952897
H       1.455768    1.474864    0.271254
H       0.083186    2.158851   -0.609489
H      -0.060350    1.819947    1.126065
H       0.124174   -0.630307    0.697483
H      -1.236521    0.045679   -0.174691
H       0.658402   -1.406988   -4.442745
H       2.260375   -0.835396   -3.984458
H       1.137013   -3.577931   -3.129141
H       3.016131   -4.478262   -4.561739
H       3.477127   -2.765518   -5.046555
