14

N      -0.046822    1.355868   -0.014051
C       0.022131   -0.020011   -0.135536
O       1.079804   -0.592160   -0.330621
C      -1.266299   -0.736902   -0.053477
C      -2.550630   -0.224238   -0.105417
N      -3.419959   -1.271749   -0.010138
C      -2.721647   -2.454043    0.099708
C      -1.385626   -2.153519    0.071196
H       0.848466    1.810161    0.087277
H      -0.801979    1.757394    0.517904
H      -2.909436    0.783569   -0.240960
H      -4.421697   -1.193158   -0.040071
H      -3.239184   -3.395326    0.189012
H      -0.558203   -2.841318    0.133028
