15

N      -0.004998    1.393385    0.152521
C       0.061402    0.015395    0.039987
N      -1.047993   -0.708113    0.015353
O      -0.633672   -2.069044   -0.010750
C       0.692307   -2.069430   -0.019836
C       1.218391   -0.816310    0.011365
C       2.676757   -0.936072    0.014849
C       2.998220   -2.246058   -0.015528
C       1.749821   -3.125079   -0.039039
H       0.704041    1.885564   -0.371819
H      -0.930058    1.756884   -0.036417
H       3.379240   -0.113569    0.041664
H       3.997456   -2.659754   -0.021216
H       1.698503   -3.794411    0.828614
H       1.704994   -3.761042   -0.931807
