19

C       0.905204    1.377660   -1.064012
C       0.068109    0.107697   -0.842646
C       0.883222   -1.134415   -0.527150
O       0.667184   -1.818444    0.444286
C       2.041782   -1.517426   -1.470505
C       1.632178   -1.681029   -2.920922
O       1.072809   -0.844068   -3.588146
O       1.976717   -2.894764   -3.383680
C       1.637516   -3.148235   -4.755270
H       1.565525    1.579362   -0.214000
H       1.508463    1.295859   -1.971205
H       0.245425    2.241496   -1.183310
H      -0.635309    0.232646   -0.015540
H      -0.505308   -0.093174   -1.754854
H       2.781694   -0.708438   -1.441891
H       2.498232   -2.429724   -1.090251
H       1.990064   -4.157942   -4.963775
H       0.556848   -3.080366   -4.901472
H       2.127840   -2.425691   -5.412093
