12

N       0.047124    1.242095    0.008723
N       1.224615    1.845692    0.000832
C       2.063358    0.789569   -0.013216
N       3.411201    0.804184   -0.026105
C       3.927082   -0.406786   -0.037936
C       3.150551   -1.611268   -0.037289
N       1.834623   -1.641256   -0.024800
C       1.291566   -0.407564   -0.012582
N      -0.016595   -0.079560    0.001892
H      -0.801809    1.789408    0.019979
H       5.011734   -0.484178   -0.048811
H       3.668770   -2.567259   -0.047694
