17

O       0.098370   -0.034428   -0.008508
C      -0.020556    1.167327    0.027733
C      -1.345029    1.909587    0.041920
C      -1.412085    3.015560   -1.045652
C      -0.086098    3.697007   -1.349704
C       0.953363    4.112484   -0.346368
O       0.941945    3.291119    0.824401
C       1.176881    2.105424    0.013527
C       1.233735    2.953819   -1.274132
H      -2.156627    1.189108   -0.077877
H      -1.433907    2.370328    1.031580
H      -1.764800    2.560198   -1.979220
H      -2.164164    3.760968   -0.763394
H      -0.123466    4.380452   -2.196184
H       1.379331    5.105263   -0.258050
H       2.101583    1.597352    0.294066
H       1.930334    2.823531   -2.090304
