16

C      -0.173769    1.511945    0.054746
C      -0.006368    0.025698    0.061103
O      -1.224170   -0.753158    0.166229
C      -0.345165   -1.876851    0.509403
C       0.752287   -0.890403    1.050518
N       1.939918   -1.057889    0.165456
C       0.965525   -0.738110   -0.951988
C       0.236441   -2.092831   -0.902257
O       0.123399   -2.980296   -1.691713
H       0.802703    2.006897    0.066655
H      -0.707695    1.832726   -0.845524
H      -0.742999    1.837958    0.929941
H      -0.819943   -2.683141    1.060729
H       0.880016   -0.745851    2.122411
H       2.552927   -0.255661    0.304408
H       1.341026   -0.356606   -1.897661
