13

N       0.367921    1.549781   -0.077875
C       0.186197    0.093928   -0.057169
C       0.885381   -0.511000   -1.196051
N       1.407985   -0.988780   -2.107997
C       0.811530   -0.425249    1.277926
O       2.120582    0.034104    1.421016
C      -0.062888    0.019428    2.391793
N      -0.757563    0.399042    3.233453
H       0.316546    1.914170   -1.022031
H      -0.360214    1.995389    0.472243
H      -0.864059   -0.229428   -0.103706
H       0.833703   -1.519212    1.272790
H       2.104316    0.958687    1.121247
