17

C       0.009407    1.395582    0.029051
O      -0.027602   -0.027898   -0.053916
C      -1.230721   -0.613670   -0.026976
N      -2.320138    0.144020    0.074191
C      -3.484557   -0.511057    0.095018
C      -3.590064   -1.894253    0.018021
C      -4.908275   -2.619453    0.042644
C      -2.362558   -2.560775   -0.084841
N      -1.186497   -1.948310   -0.108813
H       1.067016    1.659688   -0.009584
H      -0.527281    1.854176   -0.806258
H      -0.436294    1.748673    0.963269
H      -4.378227    0.106330    0.177742
H      -5.062420   -3.208631   -0.868154
H      -4.972866   -3.311767    0.889396
H      -5.740752   -1.915207    0.126404
H      -2.334395   -3.648221   -0.151138
