19

C      -0.013185    1.491045   -0.049613
C       0.023186   -0.015023    0.054612
O       0.654791   -0.612929   -1.103792
C       0.549223   -1.970026   -0.641526
C       1.187169   -1.859712    0.740673
C       0.853394   -0.645529    1.176794
C      -1.003696   -2.110638   -0.489772
C      -1.671366   -1.946360    0.852678
C      -1.373716   -0.735880    0.004691
H       0.999558    1.895728   -0.126613
H      -0.576253    1.799195   -0.935508
H      -0.495050    1.923772    0.832441
H       1.002465   -2.657518   -1.354001
H       1.695882   -2.654741    1.268775
H       1.024921   -0.201359    2.148338
H      -1.536564   -2.586197   -1.303907
H      -2.713215   -2.249117    0.912255
H      -1.103876   -2.120153    1.759121
H      -2.188264   -0.172986   -0.436335
