21

C       0.109926    1.517029   -0.066213
C       0.061070    0.062404   -0.038241
C       0.025305   -1.141605   -0.005673
C       0.000960   -2.602002    0.026714
C       1.071111   -3.193018   -0.885679
O       0.144995   -3.109257    1.389377
C      -1.223596   -3.557786    1.427039
C      -1.425957   -3.252723   -0.069042
C      -2.619563   -2.413185   -0.487851
H       0.917283    1.877321   -0.713180
H      -0.829296    1.940883   -0.438434
H       0.282044    1.923475    0.936540
H       2.061567   -2.842970   -0.582127
H       1.050799   -4.284708   -0.824606
H       0.900064   -2.887769   -1.922873
H      -1.303314   -4.604992    1.740025
H      -1.837374   -2.938175    2.095965
H      -1.369520   -4.160842   -0.676344
H      -2.678089   -1.490375    0.095966
H      -2.559342   -2.136123   -1.545472
H      -3.550765   -2.971834   -0.342517
