13

C       0.391722    1.551464    0.141959
N       1.156440    0.385825   -0.312427
C      -0.252793    0.213662    0.114222
C      -0.481832   -0.576656    1.340615
N      -0.041243   -0.224880    2.520868
O      -0.469281   -1.264452    3.353789
C      -1.131655   -2.115994    2.571273
N      -1.187267   -1.766561    1.327053
H       0.712027    1.957649    1.095833
H       0.054462    2.284644   -0.585804
H       1.199372    0.365963   -1.328545
H      -0.991768    0.014395   -0.655661
H      -1.549420   -2.994017    3.041695
