13

C       0.114034    1.444406    0.075649
N       0.001349   -0.000438    0.155183
C      -1.134397   -0.543294    0.058551
N      -1.187412   -1.958825    0.143093
N      -2.262201   -2.707227    0.066789
N      -3.402859   -2.146394   -0.101084
C      -3.373653   -0.762294   -0.186458
F      -4.574242   -0.267069   -0.357101
N      -2.385755    0.042534   -0.123780
H       0.784982    1.704545   -0.750871
H      -0.842325    1.958125   -0.067471
H       0.583982    1.816206    0.993191
H      -0.317780   -2.459220    0.275793
