16

N      -0.097872   -1.126251   -0.255896
C      -0.093418    0.028557   -0.217753
C      -0.052083    1.488261   -0.165968
C       1.362803    1.996507    0.142442
C       2.357149    1.878997   -1.042523
N       2.050398    3.285294   -1.397466
C       1.538283    3.542084   -0.037542
C       0.354399    4.398975    0.045988
N      -0.591923    5.056974    0.131596
H      -0.393149    1.889503   -1.126556
H      -0.759403    1.838573    0.593752
H       1.706985    1.607433    1.100345
H       3.385568    1.706243   -0.700035
H       2.115493    1.152739   -1.824041
H       2.827516    3.866373   -1.691038
H       2.287032    3.923929    0.671107
