20

C       0.090812    1.543971   -0.153577
C      -0.007368    0.036458   -0.014662
C      -1.210371   -0.573386   -0.711598
C       1.262808   -0.774413   -0.001963
O       2.468370   -0.074054   -0.084827
C       0.442546   -0.655995    1.269610
C       1.016755    0.107514    2.457015
C       2.231941   -0.536330    2.965297
N       3.197719   -1.065202    3.318448
H       1.061739    1.924701    0.165746
H      -0.032179    1.826857   -1.204664
H      -0.697650    2.048063    0.416969
H      -1.198203   -0.340927   -1.782484
H      -1.230938   -1.662606   -0.606509
H      -2.145335   -0.181278   -0.294728
H       1.255549   -1.733523   -0.520182
H       3.120455   -0.531478    0.459569
H      -0.120967   -1.538856    1.557523
H       1.271511    1.135795    2.189951
H       0.283005    0.164827    3.268004
