16

C      -0.033122    1.553083    0.040498
C      -0.038914    0.041209    0.072649
C      -1.354997   -0.696848   -0.114043
C      -1.241416   -1.943084    0.351241
C       0.117772   -2.116370    0.950366
C       0.704634   -0.791021    1.162288
N       1.343136   -1.724683    0.109776
C       0.943710   -0.725299   -0.855029
O       1.422832   -0.491747   -1.921320
H       0.977647    1.948323    0.177086
H      -0.398548    1.910611   -0.926711
H      -0.675755    1.968806    0.822939
H      -2.177453   -0.280755   -0.681984
H      -1.967304   -2.741496    0.281377
H       0.362852   -2.961972    1.581668
H       1.295000   -0.427550    1.994258
