16

O      -0.043217    0.106531    0.501228
C      -0.075594    1.236201    0.112982
C      -1.150321    2.307512   -0.174242
O      -1.398543    2.958389    1.104784
C      -0.293092    3.896382    0.924697
C       0.910092    3.619623    1.843563
C       1.782443    2.565320    1.084772
N       0.974561    2.178988   -0.084892
C       0.032634    3.264466   -0.438216
H      -2.055209    2.135037   -0.754319
H      -0.662263    4.923938    0.964093
H       1.470171    4.539697    2.034464
H       0.553675    3.239881    2.804359
H       2.734999    2.994209    0.761463
H       1.992571    1.669507    1.672465
H       0.245029    3.836264   -1.338082
