21

C       0.234604    1.436048    0.146280
C      -0.110312   -0.016921   -0.208461
C       0.682556   -0.527469   -1.366814
O       0.511264    0.089471   -2.650310
C       1.264083   -1.026468   -3.199902
C       2.708837   -0.776763   -2.700278
C       2.134488   -1.064192   -1.314771
C       0.982012   -1.888516   -1.903710
C       0.469136   -3.267626   -1.648585
H       1.283662    1.528111    0.444595
H       0.073922    2.089186   -0.715927
H      -0.388170    1.796627    0.970222
H       0.072652   -0.672193    0.651955
H      -1.178561   -0.098612   -0.444784
H       1.015232   -1.251548   -4.235612
H       3.393252   -1.565767   -3.024282
H       3.130782    0.210576   -2.913899
H       2.658023   -1.227220   -0.380093
H       0.373328   -3.449208   -0.572461
H      -0.517557   -3.420392   -2.100532
H       1.144243   -4.032132   -2.050634
