18

O       0.592535    0.723801   -0.929292
C       0.121428   -0.251451   -0.045141
C       0.110452    0.024744    1.491091
C      -1.283819   -0.664720    1.584608
N      -2.353503    0.100983    2.241563
C      -2.830269    1.099088    1.279380
C      -2.223421    0.749756   -0.090914
O      -2.297906    1.434005   -1.085312
C      -1.410486   -0.530694    0.043391
H      -0.156906    1.253247   -1.231397
H       0.655354   -1.183431   -0.262053
H       0.923683   -0.396245    2.084993
H       0.042193    1.096636    1.699200
H      -1.242029   -1.678195    1.983656
H      -3.109435   -0.526523    2.487525
H      -3.922768    1.128374    1.211751
H      -2.506872    2.116054    1.538842
H      -1.827327   -1.324649   -0.581468
