23

C      -0.016064    1.535200    0.069320
C       0.051423    0.024075    0.002129
C      -0.606012   -0.763807    1.115418
C       0.897554   -0.774429    0.979192
C       1.584278   -1.918883    0.230523
C       1.122084   -1.829234   -1.225568
C      -0.333093   -2.045939   -1.564514
C       0.192319   -0.637822   -1.381380
C       0.255806    0.257912   -2.600476
H       0.845248    2.008948   -0.413655
H      -0.921414    1.923804   -0.411223
H      -0.030774    1.868493    1.111534
H      -1.016608   -0.186289    1.938475
H      -1.173569   -1.661253    0.901972
H       1.469201   -0.268074    1.751298
H       2.669871   -1.776659    0.273036
H       1.379206   -2.898924    0.678511
H       1.850872   -2.061129   -1.996552
H      -0.556127   -2.349525   -2.583156
H      -0.996804   -2.491694   -0.833845
H      -0.682903    0.802621   -2.754461
H       1.060418    0.997454   -2.528130
H       0.439075   -0.337754   -3.499980
