19

C      -0.017797    1.528050    0.039879
C      -0.058862    0.035680   -0.036107
C      -0.078187   -0.745637   -1.127932
C       0.006260   -2.187485   -0.703390
C       1.343637   -2.567857    0.013280
C       0.652529   -3.016939    1.273015
C       1.359774   -1.687187    1.261613
C       0.029318   -0.870498    1.172816
C      -0.598777   -2.231467    0.737415
H       0.910170    1.877517    0.511464
H      -0.082668    1.984488   -0.952036
H      -0.841114    1.920755    0.650395
H      -0.056097   -0.399516   -2.155622
H      -0.344506   -2.945696   -1.404228
H       2.256865   -2.940131   -0.432619
H       0.766040   -3.893988    1.892443
H       2.283852   -1.403599    1.748408
H      -0.296557   -0.460883    2.130613
H      -1.651494   -2.453975    0.906552
