16

C       0.042992    1.518707   -0.035889
C       0.012217    0.065438    0.026408
C      -0.012980   -1.137519    0.082475
C      -0.036886   -2.587406    0.137614
O       0.116457   -3.146605    1.486571
C      -1.066653   -3.929544    1.306822
C      -2.266842   -3.053762    1.137870
C      -1.365738   -3.335623   -0.045752
H       0.955860    1.879033   -0.522517
H      -0.812227    1.910218   -0.597669
H       0.006880    1.954636    0.968501
H       0.747321   -3.010032   -0.502475
H      -1.061777   -4.946411    1.680511
H      -3.222429   -3.567919    1.101067
H      -2.282664   -2.070176    1.597917
H      -1.704234   -3.782218   -0.970093
