15

O       0.067664    0.028051    0.203739
C      -0.038680    1.205573   -0.007467
C      -1.311990    1.972972   -0.382361
C      -0.810169    3.323721   -0.927677
N       0.647320    3.462849   -0.615907
C       0.971886    3.429438    0.815206
C      -0.037641    3.562127    1.836305
N      -0.844699    3.716418    2.650587
C       1.102618    2.194094   -0.036948
H      -1.875105    1.395917   -1.118812
H      -1.940628    2.069639    0.507596
H      -0.886597    3.363895   -2.016486
H      -1.346381    4.183392   -0.520341
H       1.894781    3.947535    1.062508
H       2.096095    1.828876   -0.274699
