19

C       0.045933    1.600170   -0.139776
C       0.027911    0.088587   -0.024861
C       0.516530   -0.767874   -1.231415
C       1.346008   -1.587152   -0.212762
C       2.883431   -1.684784   -0.320734
N       3.293344   -0.527505    0.447312
C       2.271787    0.128414    1.104897
O       2.385063    1.126906    1.780733
N       1.076104   -0.570200    0.837245
H       0.994376    1.964314   -0.543905
H      -0.760248    1.918510   -0.809511
H      -0.100704    2.069840    0.835562
H      -0.955216   -0.242953    0.326790
H      -0.240014   -1.306308   -1.806236
H       1.145797   -0.188843   -1.914768
H       0.897605   -2.555842    0.024377
H       3.251314   -2.623428    0.113679
H       3.229478   -1.637864   -1.361586
H       4.249797   -0.313147    0.672326
