17

C       0.015557    1.389706   -0.182871
O      -0.075773   -0.006134   -0.349303
C      -1.218035   -0.558727    0.291842
C      -1.198698   -2.030530    0.113491
C      -2.162064   -2.957562   -0.198437
O      -3.466669   -2.706059   -0.455035
N      -1.660943   -4.226566   -0.212253
C      -0.381285   -4.090530    0.083759
N      -0.056248   -2.795892    0.307789
H       0.925953    1.720455   -0.688421
H      -0.846877    1.910305   -0.627224
H       0.074495    1.672740    0.880466
H      -1.201306   -0.271683    1.359789
H      -2.151519   -0.158772   -0.132343
H      -3.868171   -3.558773   -0.661179
H       0.339226   -4.891829    0.141266
H       0.863070   -2.412180    0.450515
