22

C      -0.192809    1.472419   -0.058513
N      -0.002321    0.065359    0.259638
C       1.205708   -0.659375   -0.059235
C       2.485739    0.172631    0.154259
C       2.077859    0.382893    1.642111
C       2.973111   -0.195245    2.772627
C       2.529475    0.978805    3.685122
C       2.033414    1.728555    2.419921
C       0.784315   -0.416811    1.372352
H       0.705736    2.098797    0.015586
H      -0.573187    1.546197   -1.082569
H      -0.951570    1.886112    0.613282
H       1.126928   -1.557326   -0.663336
H       3.394972   -0.428339    0.066862
H       2.598687    1.065051   -0.470076
H       2.755150   -1.213679    3.108116
H       4.034977   -0.136372    2.513297
H       1.702745    0.697212    4.342910
H       3.299765    1.463503    4.289100
H       2.780770    2.434679    2.042334
H       1.072562    2.244060    2.485249
H       0.309283   -1.087306    2.083634
