18

C       0.216716    1.220495    0.621628
C      -0.213507   -0.102826   -0.008534
O      -1.576605   -0.063307   -0.439210
C       0.669704   -0.541428   -1.149457
C       2.021427   -0.502108   -1.442802
C       3.184385    0.058235   -0.686805
N       2.210026   -1.122874   -2.646875
N       1.066919   -1.540701   -3.112711
N       0.137821   -1.196867   -2.210397
H       1.219819    1.149379    1.049251
H       0.227499    2.021441   -0.126581
H      -0.482789    1.489612    1.417173
H      -0.205038   -0.880850    0.765975
H      -1.691842    0.737968   -0.963825
H       3.236414   -0.327662    0.336957
H       4.104608   -0.223983   -1.202689
H       3.154548    1.151469   -0.626560
H      -0.836305   -1.416528   -2.350358
