20

C      -0.011843    1.346147    0.005030
O       0.002548   -0.059958    0.003749
C       0.647522   -0.603492   -1.129551
C       0.606441   -2.101238   -1.029924
C      -0.659957   -3.009376   -0.960296
C       0.556231   -3.977085   -0.906232
C       1.193391   -3.127309   -2.044274
C       1.209918   -2.989409    0.101569
H       1.006702    1.767026    0.006949
H      -0.545492    1.751969   -0.869671
H      -0.527774    1.668419    0.913001
H       0.147323   -0.269415   -2.056137
H       1.694068   -0.253902   -1.183414
H      -1.267125   -2.925764   -0.055964
H      -1.280858   -3.050097   -1.860456
H       0.528903   -5.064852   -0.837745
H       0.711006   -3.177249   -3.025165
H       2.283576   -3.160358   -2.132227
H       2.301571   -3.011837    0.174005
H       0.742903   -2.904198    1.085478
