21

C       0.130035    1.567484   -0.094367
C      -0.012405    0.048261    0.030115
C      -1.467259   -0.459267    0.083625
C      -2.264412    0.147402    1.237250
O      -2.170723   -0.102306   -1.105444
C      -1.437408   -2.020809    0.190568
O      -0.750188   -2.464469    1.359083
C      -2.771367   -2.615547    0.096310
C      -3.859703   -3.126286    0.083059
H       1.172233    1.840973   -0.284385
H      -0.479837    1.948424   -0.918614
H      -0.181436    2.082070    0.819421
H       0.471350   -0.430624   -0.834711
H       0.518949   -0.321975    0.912147
H      -2.350573    1.228247    1.111148
H      -3.273151   -0.272331    1.260348
H      -1.771504   -0.051427    2.192992
H      -1.672703   -0.433498   -1.861501
H      -0.831059   -2.385269   -0.651099
H      -1.392728   -2.501038    2.075389
H      -4.822642   -3.573430    0.050240
