18

C       0.007471    1.579597   -0.021136
C       0.034355    0.053605    0.044623
C       0.786672   -0.605986   -1.136630
O       1.315851   -1.844583   -0.662804
C       1.548773   -1.721460    0.705007
C       2.288762   -0.529281    1.229540
C       0.755524   -0.545547    1.258715
C       0.071512   -0.598038    2.513952
N      -0.487184   -0.633044    3.527409
H       1.020935    1.994216   -0.009562
H      -0.485541    1.921053   -0.937125
H      -0.539151    1.998488    0.828394
H      -0.993675   -0.325019    0.069365
H       0.139650   -0.824942   -1.989170
H       1.597903    0.048759   -1.486403
H       1.607412   -2.678660    1.207866
H       2.786390   -0.640247    2.185815
H       2.778266    0.148918    0.539964
