18

C       0.000751    1.504364   -0.081211
C       1.571606    1.535568    0.003082
C       1.538854    0.035288   -0.241918
O       2.394420   -0.919635    0.323575
C       1.722770   -2.156153    0.001445
C       0.849660   -1.857256   -1.228468
C       1.131419   -0.481488   -1.644779
N      -0.260183   -0.831198   -1.166540
C       0.021613   -0.049421    0.072685
H      -0.516556    2.042733    0.713500
H      -0.398227    1.823948   -1.045845
H       2.120378    2.160841   -0.705237
H       1.909335    1.763198    1.017622
H       2.477560   -2.913810   -0.229870
H       1.135661   -2.499257    0.863077
H       0.651057   -2.644093   -1.945580
H       1.363995   -0.108823   -2.634497
H      -0.392525   -0.449655    1.000907
