14

C       0.004386    1.441812   -0.024212
N      -0.023426   -0.004156    0.031256
N      -0.191548   -0.756936   -1.102420
N      -0.176271   -2.002331   -0.758859
C       0.001052   -2.102550    0.599959
C       0.071973   -3.290929    1.353619
C       0.141952   -4.264836    2.060330
C       0.097996   -0.812045    1.096692
O       0.272921   -0.315406    2.328015
H       0.960722    1.822916    0.343617
H      -0.126680    1.721439   -1.069261
H      -0.804592    1.865858    0.576506
H       0.200272   -5.139241    2.659968
H       0.336036   -1.059576    2.941587
