16

C       0.005199    1.567566   -0.034020
C       0.037163    0.070472   -0.067230
C       0.614915   -0.885579   -1.164772
C      -0.443362   -1.887293   -0.764615
C       0.914431   -1.873843   -0.061533
C       0.561433   -0.874403    1.072220
O      -0.776981   -1.169901    1.528550
C      -1.181122   -0.891601    0.169833
H       1.016443    1.988359   -0.071002
H      -0.554571    1.972863   -0.884574
H      -0.474651    1.919251    0.885876
H       1.103540   -0.707707   -2.111815
H      -0.821008   -2.746668   -1.300772
H       1.583591   -2.722840   -0.055652
H       1.267064   -0.631944    1.866007
H      -2.240241   -0.666565    0.049733
