20

C       0.316211    1.298582    0.184408
C      -0.271571   -0.035251   -0.314146
C      -1.760227   -0.097110   -0.153185
C      -2.620856   -0.439241   -1.148224
C      -2.409457   -1.879529   -1.644831
N      -3.449909   -2.286813   -0.596326
C      -3.494846   -1.414570    0.694481
C      -2.387083   -0.467338    1.187425
C      -3.972626   -0.893214   -0.586892
H       1.403407    1.315369    0.060912
H      -0.105435    2.140606   -0.372691
H       0.095684    1.456051    1.245360
H      -0.013286   -0.170354   -1.370470
H       0.202704   -0.855974    0.245445
H      -2.841338   -2.152418   -2.612611
H      -1.410084   -2.312834   -1.540069
H      -4.157830   -1.903082    1.402751
H      -1.620204   -0.934126    1.817142
H      -2.849584    0.326768    1.791202
H      -4.974555   -0.632543   -0.909677
