15

O      -0.209499    0.164685   -0.171384
C      -0.046313    1.362014   -0.131101
C       1.275910    1.986014    0.016441
C       1.506328    3.420212    0.429725
C       1.962869    3.035963   -0.933223
O       3.183363    2.322103   -0.926412
C       2.610760    1.260861   -0.104194
C       1.442182    3.602602   -2.195803
O       0.400157    4.207892   -2.273628
H      -0.894679    2.074256   -0.207450
H       0.613186    4.037277    0.441659
H       2.255100    3.640225    1.184796
H       3.178734    1.104230    0.817781
H       2.534087    0.330179   -0.671074
H       2.094488    3.409546   -3.072820
