21

C      -0.111094    1.527618    0.043146
C      -0.012133    0.013376    0.004445
C      -0.822856   -0.778356    1.013316
C       0.685383   -0.713081    1.133150
C       1.535855   -1.938426    0.803812
C       2.195628   -1.838920   -0.576616
O       2.740872   -3.124712   -0.860952
C       1.189700   -1.405607   -1.621889
C       0.184592   -0.574523   -1.350124
H       0.795192    1.995668   -0.357154
H      -0.959889    1.882962   -0.553431
H      -0.252084    1.886283    1.067860
H      -1.424739   -0.225059    1.727870
H      -1.255633   -1.719897    0.691254
H       1.068159   -0.082180    1.930008
H       2.308013   -2.086943    1.564602
H       0.925427   -2.847609    0.795011
H       3.009544   -1.093778   -0.532122
H       3.226322   -3.066818   -1.689874
H       1.321018   -1.812161   -2.622710
H      -0.518951   -0.282422   -2.128094
