23

C       0.445785    1.214366    0.476987
C      -0.324719    0.041468   -0.131288
O      -1.684312    0.372530   -0.407898
C       0.366825   -0.509407   -1.388813
C       0.169473    0.361696   -2.618726
O       1.708366   -0.979673   -1.164401
C       0.701461   -1.952388   -1.513948
C       0.367547   -2.956985   -0.425168
C       0.872316   -2.613350   -2.869677
H       1.469450    0.911970    0.712144
H       0.496950    2.066633   -0.211152
H      -0.047904    1.549147    1.393400
H      -0.385434   -0.747944    0.619214
H      -1.695604    1.217415   -0.869500
H       0.324645    1.418812   -2.376043
H       0.882969    0.109173   -3.402113
H      -0.844336    0.250845   -3.014390
H       0.485705   -2.538230    0.574093
H      -0.658350   -3.325003   -0.534338
H       1.039709   -3.818569   -0.500794
H       1.672759   -3.359369   -2.816651
H      -0.047505   -3.135764   -3.155096
H       1.125454   -1.906756   -3.658912
