19

C       0.522293    0.453396   -0.752714
C       0.047859   -0.026824    0.622756
O       0.065461    1.031597    1.568669
C      -1.368400   -0.637729    0.623517
O      -2.343273    0.374875    0.386670
C      -1.543218   -1.824661   -0.351959
O      -0.493101   -2.775270   -0.199644
C      -2.863359   -2.440684   -0.214041
C      -3.924534   -2.982515   -0.056288
H       1.472656    0.979660   -0.636858
H       0.674181   -0.381599   -1.443631
H      -0.186692    1.159350   -1.202967
H       0.746101   -0.783454    0.991531
H      -0.756992    1.519983    1.429891
H      -1.574231   -0.986817    1.641557
H      -2.314908    0.614764   -0.546751
H      -1.432202   -1.444799   -1.376751
H      -0.698592   -3.315060    0.571934
H      -4.868998   -3.452293    0.068953
