17

C       1.034915   -0.098341    0.200056
C      -0.413847    0.115543    0.574826
O      -0.884970    1.203431    0.803889
C      -1.314214   -1.124004    0.724361
N      -0.999052   -2.262634   -0.132592
C      -0.199151   -3.302266    0.337899
N       0.330386   -3.252400    1.492143
C      -1.549443   -2.348776   -1.404094
O      -1.350887   -3.246345   -2.185843
H       1.562231    0.855247    0.231190
H       1.493293   -0.818223    0.885969
H       1.111883   -0.526936   -0.805339
H      -1.221581   -1.465482    1.760220
H      -2.345153   -0.805407    0.556319
H      -0.113605   -4.104993   -0.395242
H       0.861614   -4.101354    1.674615
H      -2.203553   -1.484886   -1.622363
