19

N      -0.003142    1.462900    0.187900
C      -0.021273    0.014287   -0.027842
C      -1.432730   -0.555931    0.211425
C      -1.914372   -0.351870    1.653304
C      -3.326743   -0.847486    1.844369
C      -4.294241   -0.149515    2.698986
O      -4.361641   -0.037937    1.276096
C       0.466829   -0.375995   -1.369851
N       0.851284   -0.639115   -2.428299
H       0.940014    1.823172    0.079700
H      -0.571270    1.921307   -0.519704
H       0.663406   -0.433402    0.703708
H      -2.133074   -0.071515   -0.479295
H      -1.427738   -1.621526   -0.043600
H      -1.250995   -0.886390    2.346917
H      -1.860681    0.710096    1.907378
H      -3.475456   -1.917955    1.685367
H      -5.108267   -0.703353    3.164593
H      -3.987994    0.754492    3.224138
