19

C      -0.494548    1.583859   -0.493323
C      -0.037359    0.150921   -0.133517
C      -1.182957   -0.659667    0.273577
C      -2.142010   -1.297363    0.618073
C       0.772295   -0.465921   -1.285386
C       2.229054   -0.010510   -1.355935
O       2.832888   -0.376663   -2.573438
C       0.407161   -1.732080   -1.927909
O       0.127402   -0.468544   -2.567614
H       0.362775    2.225346   -0.714507
H      -1.142620    1.553342   -1.371513
H      -1.048877    2.024013    0.338432
H       0.646802    0.213886    0.725324
H      -2.984765   -1.865351    0.926371
H       2.278087    1.079065   -1.194862
H       2.798881   -0.483791   -0.547686
H       2.171008   -0.192522   -3.254523
H       1.186369   -2.318588   -2.408047
H      -0.471467   -2.269661   -1.584722
