18

O       0.197320    1.341873    0.220720
C       0.053747   -0.030769   -0.115428
C      -1.369323   -0.476137   -0.114535
C      -2.038124   -1.843256   -0.057132
C      -2.331136   -0.777460    1.005315
N      -3.475285   -0.005892    0.431914
C      -4.359665   -1.062414   -0.191107
C      -3.155084   -1.465050   -1.061650
C      -2.636393    0.000592   -0.865620
H      -0.293366    1.489069    1.036639
H       0.492501   -0.135504   -1.114382
H       0.634874   -0.680606    0.560784
H      -1.602588   -2.808130    0.164822
H      -2.173744   -0.908550    2.068827
H      -4.785153   -1.788473    0.508307
H      -5.156624   -0.573017   -0.759138
H      -3.219349   -1.990873   -2.013514
H      -2.747739    0.833450   -1.556715
