23

C       0.118367    1.511757   -0.010138
C       0.053481   -0.014963    0.095007
C      -1.370745   -0.558899    0.082129
C      -2.210852   -0.458983   -1.248951
C      -2.355381   -1.993388   -1.222312
C      -3.453677   -2.842735   -1.782455
C      -3.447054   -2.875442   -3.317395
O      -1.013411   -2.515639   -1.257188
C      -1.546545   -2.085784    0.005357
H       1.154002    1.865615   -0.005841
H      -0.349724    1.867434   -0.934513
H      -0.400667    1.991486    0.827530
H       0.605959   -0.473633   -0.732495
H       0.550879   -0.339400    1.018992
H      -1.947457   -0.149467    0.919619
H      -3.155440    0.074870   -1.118188
H      -1.687330   -0.065099   -2.124178
H      -3.342968   -3.858322   -1.386248
H      -4.416664   -2.460080   -1.421057
H      -4.254982   -3.506707   -3.698583
H      -3.579624   -1.872445   -3.736379
H      -2.498014   -3.272326   -3.689410
H      -1.551883   -2.816337    0.808192
