18

O      -0.052888    1.455745    0.042074
C      -0.085754    0.080409    0.360294
C      -1.401351   -0.550642   -0.112884
O      -1.597518   -0.222648   -1.491159
C      -1.439457   -2.054369    0.085056
O      -0.568255   -2.720918   -0.806878
C      -1.556762   -2.628188    1.467576
C      -2.706382   -2.754224    0.486520
H      -0.430557    1.516990   -0.845369
H       0.756089   -0.466226   -0.097617
H       0.012965   -0.011260    1.446936
H      -2.233595   -0.081009    0.422333
H      -0.959890   -0.766382   -1.973514
H      -1.103978   -3.100768   -1.510379
H      -0.974274   -3.518702    1.671521
H      -1.664536   -1.948561    2.306053
H      -3.598401   -2.157871    0.644016
H      -2.888700   -3.737603    0.064595
