16

C      -0.114055    1.511692   -0.026004
C       0.078179    0.018006   -0.020593
O       1.144874   -0.541797   -0.038351
N      -1.121793   -0.745709    0.007984
N      -2.343967   -0.119095    0.028768
N      -3.247065   -1.034773    0.051896
C      -2.642604   -2.265181    0.047198
C      -1.282437   -2.113349    0.019484
C      -0.183548   -3.118239    0.003829
H       0.870681    1.977129   -0.046725
H      -0.703149    1.819480   -0.893349
H      -0.671725    1.830229    0.858021
H      -3.218707   -3.176421    0.063982
H       0.443409   -3.012932   -0.885434
H       0.477318   -3.003136    0.866956
H      -0.614459   -4.121975    0.017814
