21

C       0.020878    1.595353    0.162260
C       1.402188    2.187464   -0.141907
O       1.791626    2.216201   -1.510462
C       2.148537    1.012782   -2.133232
O       3.038036    0.225985   -1.382850
C       2.586668   -1.066900   -0.959442
C       2.117674   -1.115156    0.477582
C       0.950197   -0.647106    0.924498
C      -0.097373    0.049920    0.101071
H      -0.240829    1.922014    1.177641
H      -0.721581    2.040219   -0.510514
H       1.397153    3.241810    0.151208
H       2.169768    1.678675    0.451556
H       1.262647    0.415075   -2.402290
H       2.655062    1.328140   -3.053387
H       1.796912   -1.417654   -1.637913
H       3.440971   -1.738311   -1.088347
H       2.810147   -1.555656    1.190715
H       0.743343   -0.717801    1.991615
H      -1.093762   -0.227890    0.464649
H      -0.048929   -0.283124   -0.939473
