16

O       0.029455    1.452823    0.042131
C       0.083898    0.034006    0.031848
C      -1.308766   -0.656738    0.070096
C      -1.238121   -1.859353   -0.909523
C      -2.468372   -1.957893   -1.793722
O      -3.139472   -2.943905   -1.944915
C       0.014279   -1.559306   -1.716329
C       0.721194   -0.554525   -1.204733
H      -0.392931    1.732967   -0.777996
H       0.671659   -0.213427    0.924412
H      -1.610598   -0.957286    1.074921
H      -2.050540    0.071815   -0.281687
H      -1.143724   -2.817535   -0.385715
H      -2.711641   -1.004588   -2.322967
H       0.289049   -2.150422   -2.583222
H       1.669578   -0.188705   -1.582663
