16

C       0.160699    1.364486    0.314945
C      -0.078243   -0.089481   -0.011928
C       0.615039   -0.769041   -1.180306
C       1.552133   -0.027040   -1.988109
N       2.300210    0.538523   -2.665086
N       0.919321   -1.107618    0.210157
C       2.137808   -0.862538    0.887814
N       3.217666   -1.443708    0.291845
O       2.179618   -0.243215    1.928370
H       1.146324    1.701054   -0.012766
H      -0.598967    1.979000   -0.177577
H       0.096283    1.517296    1.394191
H      -1.091240   -0.440299    0.179870
H       0.088265   -1.542928   -1.733852
H       3.116685   -2.092787   -0.468423
H       4.078653   -1.444052    0.811456
