20

O      -0.124421    1.452181    0.064667
C       0.022436    0.037761    0.020135
C       0.799266   -0.506300    1.221990
C       1.030609   -2.018077    1.079149
C      -0.241260   -2.785980    0.757242
C      -1.491983   -2.621829    1.579419
C      -1.438768   -2.056772    0.176911
C      -1.392427   -0.543493   -0.033853
H       0.755785    1.840012    0.100508
H       0.561702   -0.258330   -0.896970
H       1.767506    0.005055    1.300898
H       0.246822   -0.269352    2.139818
H       1.749002   -2.182824    0.264676
H       1.499177   -2.418371    1.986667
H      -0.064506   -3.787263    0.373896
H      -2.103639   -3.498260    1.764957
H      -1.479964   -1.912258    2.401524
H      -2.009249   -2.601440   -0.568579
H      -1.985291   -0.025663    0.729962
H      -1.841634   -0.284427   -0.997196
