21

C      -1.070548    1.095869   -0.959765
O      -1.328749   -0.248888   -0.626497
C      -0.747407   -0.632314    0.594689
C      -1.042845   -2.098747    0.917201
O      -0.568963   -2.583220    1.920472
C      -1.885369   -2.874892   -0.061184
C      -1.140072   -3.393321   -1.342375
C      -1.885343   -4.744363   -1.171350
C      -2.236980   -4.340771    0.286344
H      -1.558113    1.294595   -1.916863
H      -1.473614    1.786483   -0.202744
H       0.008651    1.289058   -1.060851
H       0.347476   -0.502719    0.580979
H      -1.126468   -0.022585    1.432587
H      -2.749801   -2.275655   -0.356432
H      -1.297620   -2.825812   -2.260270
H      -0.064633   -3.493765   -1.169404
H      -2.772924   -4.799330   -1.807964
H      -1.301463   -5.656614   -1.313569
H      -1.528727   -4.736390    1.017929
H      -3.252440   -4.539087    0.635938
