15

O      -0.072556   -0.042389   -0.032114
C       0.033619    1.154069    0.050857
N      -1.033620    2.055351    0.219086
C      -0.601091    3.373263    0.435841
C       0.704436    3.461700    0.133311
C       1.975034    3.794262    0.882687
C       2.062297    2.852621    2.024795
N       2.471958    2.358483    0.691721
C       1.234470    2.100291   -0.179083
H      -1.988336    1.736701    0.270421
H      -1.266698    4.081850    0.911585
H       2.639908    4.637017    0.735307
H       2.913094    2.926159    2.696523
H       1.147007    2.490949    2.485973
H       1.607674    1.919546   -1.191672
