19

C      -0.091474   -1.218298    0.049399
C      -0.037396   -0.017202    0.030924
C       0.016208    1.449947    0.004843
O      -0.610463    2.011248    1.157879
C       0.407093    2.196557    2.137602
C       1.605984    2.735986    1.349742
C       1.460879    2.017248    0.006123
C       2.599507    1.277775   -0.639954
C       2.080270    2.553587   -1.256230
H      -0.147941   -2.278731    0.068105
H      -0.551504    1.808960   -0.860981
H       0.017369    2.885861    2.889946
H       0.651668    1.241276    2.626222
H       1.513255    3.819646    1.221971
H       2.561343    2.530223    1.840026
H       3.564610    1.301668   -0.144145
H       2.375297    0.339382   -1.135565
H       1.511260    2.479222   -2.178036
H       2.688060    3.450013   -1.180838
