16

N       0.012034    1.257785    0.014988
C       0.015462    0.002229   -0.080279
O      -1.108459   -0.687357    0.244325
C      -1.084186   -2.081891    0.042619
C      -2.319931   -2.755438    0.642565
O      -2.492972   -3.940312   -0.133012
C      -2.222507   -3.621865   -1.487142
C      -1.211282   -2.480540   -1.445358
O      -0.649874   -1.951989   -2.365136
H       0.924899    1.628681   -0.239821
H       0.847851   -0.636948   -0.394016
H      -0.165098   -2.531745    0.445988
H      -2.205923   -3.055011    1.684823
H      -3.180686   -2.075694    0.554122
H      -1.832818   -4.505230   -2.000633
H      -3.122579   -3.278779   -2.023911
