18

C      -0.267713    1.411408   -0.569764
O      -0.321618   -0.021279   -0.529608
C      -0.995531   -0.545683    0.512707
O      -1.509615    0.120216    1.379171
C      -1.050412   -2.051337    0.422585
C      -1.397131   -2.857126    1.699742
N      -2.590523   -3.512819    1.048663
C      -3.504321   -2.406135    0.708060
C      -2.341494   -2.645809   -0.168557
H       0.304746    1.661853   -1.462793
H      -1.274189    1.833262   -0.628470
H       0.224694    1.802963    0.323793
H      -0.164896   -2.424454   -0.092005
H      -0.647634   -3.607214    1.956056
H      -1.645611   -2.261310    2.581539
H      -4.468480   -2.754125    0.350937
H      -3.533051   -1.524640    1.342816
H      -2.429274   -3.030315   -1.179296
