20

C       0.559050    1.569761    0.334858
C      -0.089552    0.222252   -0.001454
C       0.449985   -0.386979   -1.279469
C       1.751544   -1.191321   -1.278489
C       0.439801   -1.857045   -1.505608
C      -0.263586   -3.000952   -0.782275
C      -0.552425   -3.481220   -2.191544
N      -1.150875   -4.463349   -2.688976
O       0.096759   -2.421098   -2.798566
H       1.642462    1.465798    0.453796
H       0.382101    2.301509   -0.460681
H       0.154565    1.982221    1.264136
H       0.069771   -0.478068    0.828671
H      -1.176483    0.348261   -0.089568
H       0.288243    0.205997   -2.177223
H       2.414116   -1.087259   -2.130657
H       2.251651   -1.361605   -0.329271
H       0.373361   -3.665936   -0.196188
H      -1.149172   -2.733068   -0.202650
H      -1.127973   -4.432479   -3.709652
