18

C      -0.003544    1.399503   -0.197123
C       1.392481    1.908570    0.092168
C       2.179070    0.904537    0.481339
C       1.405183   -0.357348    0.547513
C       1.905574   -1.774123    0.303546
C       0.917104   -2.619528    1.084904
C       0.017920   -1.881819    1.742616
C       0.235737   -0.430082    1.482193
N       0.022357   -0.062855    0.058572
H      -0.767865    1.886895    0.423841
H      -0.296126    1.568926   -1.242150
H       1.675678    2.952122    0.020201
H       3.227378    0.970721    0.745556
H       1.906725   -2.022579   -0.764392
H       2.934515   -1.910480    0.664877
H       0.949890   -3.703171    1.074473
H      -0.780096   -2.264522    2.367458
H       0.062679    0.327706    2.241864
