21

C       0.004573    1.565961   -0.035572
C       0.039832    0.033796    0.015368
C       0.672432   -0.565727   -1.239063
O       2.015236   -0.171194   -1.565242
C       1.798066   -1.493785   -1.058958
C       2.203654   -1.771840    0.383966
C       2.285799   -0.437655    1.172377
C       0.734306   -0.518011    1.279859
C       0.895118   -2.064684    1.181653
H       1.015190    1.978416   -0.100530
H      -0.553162    1.917667   -0.909962
H      -0.478074    1.975292    0.857956
H      -0.996934   -0.332944    0.034144
H       0.025406   -0.655944   -2.111608
H       1.969805   -2.287254   -1.785217
H       3.036392   -2.475014    0.451145
H       2.756603   -0.589822    2.146914
H       2.736425    0.417283    0.669159
H       0.263506   -0.110811    2.178937
H       0.106689   -2.636156    0.680752
H       1.104396   -2.512441    2.156612
