22

C      -0.188083    1.469113   -0.705782
C      -0.077388    0.155913    0.084039
C      -1.405588   -0.560489    0.284477
C      -1.999493   -1.321786   -0.893207
C      -1.481746   -2.095328    0.276196
C      -0.263272   -2.986104    0.183432
C      -2.446655    0.045865    1.196601
N      -2.050285    1.102122    1.972830
O      -3.589279   -0.378832    1.250553
H       0.795853    1.931262   -0.833754
H      -0.605931    1.284784   -1.700408
H      -0.839660    2.191105   -0.205556
H       0.605955   -0.511674   -0.448567
H       0.410068    0.337594    1.052912
H      -3.071995   -1.249673   -1.025449
H      -1.410210   -1.327516   -1.805435
H      -2.259303   -2.468472    0.935929
H       0.457797   -2.637653   -0.561158
H       0.256269   -3.065537    1.144969
H      -0.565341   -3.997091   -0.111550
H      -1.084301    1.351456    2.086729
H      -2.705557    1.413483    2.671621
