18

C       0.210426    1.526754    0.082443
C      -0.057478    0.033873   -0.042746
C       0.955815   -0.769565   -0.915060
N       1.428289   -1.437605    0.301720
C       0.397958   -0.839839    1.165048
C       1.950160   -2.707610    0.322663
N       1.942637   -3.302996    1.579431
O       2.356299   -3.268794   -0.678996
H       1.251459    1.715780    0.367594
H       0.025437    2.040261   -0.866997
H      -0.434527    1.983734    0.840749
H      -1.097449   -0.143995   -0.324632
H       0.514614   -1.462596   -1.638603
H       1.721536   -0.172542   -1.422237
H       0.793946   -0.280366    2.022386
H      -0.344192   -1.562137    1.525352
H       2.016138   -2.697566    2.383297
H       2.532665   -4.120136    1.622854
