19

C      -0.088425    1.525031    0.156774
C       0.022690    0.009564   -0.032534
C      -1.361744   -0.570524    0.284103
C       0.882706   -0.587398   -1.194595
C       2.105699   -0.051853   -0.422365
N       1.245939   -0.654182    0.716730
C       1.113650   -1.830151   -0.286144
C       0.171007   -2.910989   -0.040247
N      -0.478202   -3.854084    0.123759
H       0.841315    2.086600    0.085704
H      -0.778851    1.930644   -0.590101
H      -0.519428    1.728220    1.142515
H      -1.597794   -1.497933   -0.232151
H      -1.449621   -0.750930    1.360400
H      -2.130904    0.156621    0.009915
H       0.686913   -0.581214   -2.272436
H       3.056635   -0.571773   -0.555367
H       2.267720    1.017751   -0.351907
H       2.081403   -2.317934   -0.435468
