21

C       0.102957    1.503233   -0.021079
C       0.060470    0.047293   -0.030922
C       0.001549   -1.158126   -0.027412
C       0.011078   -2.597746   -0.071803
C       1.085792   -3.162509   -0.994669
O       2.394509   -2.795394   -0.603142
C      -0.314030   -3.372247    1.198358
C      -1.295084   -3.375569    0.059683
C      -2.628055   -2.673097    0.171509
H       0.745047    1.883141    0.781546
H       0.487962    1.896710   -0.968422
H      -0.896985    1.925945    0.127120
H       1.053029   -4.256656   -0.967318
H       0.875287   -2.846338   -2.028871
H       2.399848   -1.834193   -0.522396
H       0.274218   -4.261961    1.395974
H      -0.566493   -2.792148    2.079108
H      -1.318329   -4.287258   -0.533443
H      -2.537655   -1.745340    0.742940
H      -3.026087   -2.416934   -0.816222
H      -3.361681   -3.312598    0.674289
