20

C       0.030258    1.625351    0.125656
C       0.013452    0.093921    0.056043
C       0.735581   -0.523732    1.267976
O       2.093271   -0.113945    1.361778
C      -1.408334   -0.463581   -0.038792
C      -2.235125   -0.189019   -1.335119
N      -2.314380   -1.641380   -1.512681
C      -1.542544   -1.962791   -0.425092
O      -1.130430   -3.008532    0.006443
H       1.054475    1.980375    0.262256
H      -0.377241    2.080397   -0.782714
H      -0.564576    1.980698    0.975702
H       0.560747   -0.222179   -0.846297
H       0.256691   -0.175632    2.191668
H       0.642311   -1.616474    1.239305
H       2.586049   -0.578666    0.678315
H      -1.972299   -0.230531    0.870992
H      -3.202706    0.300681   -1.190070
H      -1.678395    0.325305   -2.125604
H      -2.686447   -2.211914   -2.257297
