20

C      -0.050988    1.559154    0.003671
C       0.059058    0.033036    0.011870
N       0.814158   -0.475133   -1.143506
C       1.784426   -1.167662   -0.680469
C       2.799818   -1.859057   -1.531601
N       1.842255   -1.247001    0.719983
C       2.816293   -1.923340    1.542494
C       0.785510   -0.501791    1.242271
N       0.467611   -0.283860    2.454437
H       0.943221    2.016011   -0.003941
H      -0.589381    1.893265   -0.886605
H      -0.580073    1.894562    0.899049
H      -0.951939   -0.393212   -0.016934
H       2.561203   -1.664923   -2.577077
H       3.811989   -1.494742   -1.324103
H       2.796009   -2.941336   -1.361031
H       3.535593   -2.447803    0.913751
H       3.363181   -1.211748    2.174094
H       2.331922   -2.658044    2.197504
H       1.104022   -0.740522    3.109273
