18

C      -0.141449    1.503530   -0.086680
N       0.113862    0.079808    0.015631
C       0.783068   -0.559931   -1.137240
C       1.354664   -1.882373   -0.565825
N       1.506157   -1.495654    0.820959
N       2.051636   -2.121107    1.891027
C       1.671165   -1.347903    2.906929
C       0.855641   -0.252183    2.512216
C       0.763500   -0.414336    1.143596
H       0.781016    2.097782   -0.200404
H      -0.786510    1.696345   -0.948882
H      -0.665640    1.845181    0.809307
H       0.079042   -0.721501   -1.957336
H       1.605226    0.075262   -1.505071
H       0.648094   -2.715557   -0.667659
H       2.304934   -2.167288   -1.021782
H       1.998560   -1.591628    3.907943
H       0.417160    0.510567    3.132519
