25

O      -0.093984    1.451702   -0.201674
C       0.012531    0.049232   -0.003743
C      -1.386766   -0.546533   -0.078980
C      -1.404939   -2.064349    0.123292
C      -2.811342   -2.667284    0.041186
C      -2.836250   -4.186199    0.255307
C      -4.226613   -4.780146    0.170904
C      -4.814606   -5.161175   -1.165359
C      -4.424070   -6.233204   -0.176021
H       0.788968    1.829548   -0.156490
H       0.655080   -0.413334   -0.771438
H       0.462638   -0.181466    0.976242
H      -2.012787   -0.057175    0.677498
H      -1.820440   -0.289872   -1.053520
H      -0.762086   -2.542799   -0.629167
H      -0.961841   -2.310348    1.098681
H      -3.456434   -2.185743    0.789080
H      -3.254412   -2.432496   -0.935619
H      -2.192547   -4.670732   -0.492096
H      -2.394119   -4.422236    1.233623
H      -4.929972   -4.369476    0.892172
H      -5.869359   -4.982055   -1.342666
H      -4.190829   -5.034979   -2.044832
H      -3.540866   -6.825190   -0.394242
H      -5.212566   -6.784162    0.324901
