20

C      -0.278282    1.618869    0.062674
C      -0.015507    0.119252    0.138989
C       0.341779   -0.639403   -1.142088
C       1.664370   -0.250701   -1.660218
N       1.616777   -1.224452   -0.551134
C       1.324121   -0.453359    0.716758
C       2.427141    0.469726    1.238095
C       3.663368   -0.311967    1.636397
O       4.211399   -0.218282    2.705128
H       0.521362    2.157851   -0.453479
H      -1.210059    1.815776   -0.478415
H      -0.380090    2.051686    1.063473
H      -0.855779   -0.362737    0.646279
H      -0.345580   -1.255004   -1.713894
H       1.992388   -0.706891   -2.589053
H       2.050715    0.751848   -1.499128
H       1.108334   -1.197930    1.488571
H       2.726054    1.195219    0.470346
H       2.079997    1.033438    2.109471
H       4.043208   -1.004069    0.853385
