19

C      -0.044393    1.449307   -0.151708
C       1.307182    0.780485    0.009572
O       2.146036    0.393877   -1.055005
C       1.551318   -0.765606   -1.599272
C       1.077835   -1.970192   -0.758792
C       1.047954   -2.031958    0.783451
C      -0.056455   -1.013459    1.212275
C       0.054716   -0.044927    0.048727
C       0.119373   -0.889450   -1.222210
H      -0.360359    2.085435    0.669729
H      -0.363909    1.788004   -1.131894
H       1.856949    0.980442    0.923839
H       1.927063   -0.975018   -2.594695
H       1.129593   -2.912388   -1.295598
H       0.822280   -3.049711    1.115334
H       2.013471   -1.757589    1.221884
H      -1.037284   -1.500537    1.262546
H       0.141737   -0.552500    2.184583
H      -0.728756   -1.008285   -1.887947
