23

C       0.147683    1.347230   -0.415081
C       0.005023    0.009089    0.324767
O       0.423468    0.119943    1.685339
C      -1.356271   -0.527021    0.215844
C      -2.490145   -0.932966    0.154479
C      -3.864481   -1.445367    0.077365
C      -3.831303   -2.949301   -0.277697
C      -4.556578   -1.251085    1.445825
C      -4.641754   -0.671424   -1.011389
H       1.170449    1.717417   -0.305181
H      -0.079484    1.230728   -1.478872
H      -0.542330    2.088828    0.000447
H       0.707354   -0.709585   -0.115483
H      -0.266547    0.599964    2.156460
H      -3.284181   -3.517273    0.479850
H      -4.851025   -3.345077   -0.336838
H      -3.342741   -3.112094   -1.242526
H      -4.592944   -0.192620    1.719231
H      -5.583099   -1.630990    1.404964
H      -4.021836   -1.788332    2.234129
H      -4.168344   -0.791930   -1.989916
H      -5.669363   -1.044841   -1.077915
H      -4.678197    0.397163   -0.781131
