15

C      -0.538877    0.788429    0.092377
N       0.679600    0.015782   -0.030516
C       0.752910   -0.815295   -0.963072
O       1.890158   -1.548950   -1.130303
C       1.877743   -2.499070   -2.154980
C       1.060992   -3.738858   -1.803601
O       0.350795   -3.841743   -0.841085
C       1.195794   -4.833645   -2.788409
N       1.319942   -5.667087   -3.580169
H      -0.299252    1.856166    0.042819
H      -1.292851    0.563958   -0.679080
H      -0.985930    0.606242    1.075561
H      -0.029418   -1.015915   -1.710286
H       1.489784   -2.101014   -3.107339
H       2.915131   -2.799737   -2.337337
