17

O      -0.145164    1.368988    0.083739
N       0.031231   -0.026468   -0.023335
C      -1.081408   -0.623422   -0.087555
C      -2.567835   -0.333290    0.016153
C      -2.992565   -0.970035   -1.332249
N      -2.553880   -2.380485   -1.062381
C      -3.456452   -2.691668    0.116172
C      -2.648288   -1.667488    0.901394
C      -1.434823   -2.071846   -0.008797
H       0.764838    1.681481    0.129551
H      -2.964317    0.626841    0.332225
H      -4.065458   -0.940660   -1.535663
H      -2.455675   -0.550156   -2.186075
H      -4.524717   -2.544881   -0.069730
H      -3.278938   -3.714110    0.460479
H      -2.591682   -1.562710    1.983900
H      -0.742123   -2.890763    0.160008
