25

C      -0.096121    1.606341   -0.001238
C       0.064642    0.084427   -0.017360
C       0.669272   -0.473501    1.277647
O      -0.117308   -0.123390    2.418463
C       0.900385   -1.977733    1.217973
C       2.014090   -2.539852    0.288933
C       2.383553   -3.559019    1.404827
C       3.848568   -3.875236    1.661150
C       1.614431   -2.661176    2.415258
H       0.877744    2.103343    0.071018
H      -0.587231    1.965324   -0.910752
H      -0.690922    1.919251    0.860867
H      -0.913102   -0.394068   -0.178030
H       0.694136   -0.221314   -0.862483
H       1.634340    0.020420    1.458745
H      -0.969191   -0.565371    2.327510
H      -0.054576   -2.479317    1.006751
H       1.722320   -2.930859   -0.689118
H       2.815124   -1.804901    0.143424
H       1.827163   -4.490019    1.244804
H       4.425721   -2.957122    1.820942
H       3.970173   -4.503138    2.551149
H       4.297523   -4.407973    0.814959
H       2.286963   -1.959812    2.921580
H       0.996919   -3.151030    3.171663
