17

O      -0.095631   -0.111465   -0.200094
C      -0.020846    1.090505   -0.062481
N       1.129703    1.793122    0.129935
C       2.436764    1.178582    0.190302
C       3.515875    2.073789   -0.428497
C       3.842370    2.684308    0.888954
C       3.196236    1.392279    1.535834
C       4.545202    0.725639    1.239348
N       4.835468    1.798483    0.223764
H      -0.904735    1.758773   -0.085922
H       1.066024    2.794206    0.236794
H       2.324333    0.149983   -0.157266
H       3.543037    2.502615   -1.422201
H       4.052992    3.693473    1.216940
H       2.666062    1.298063    2.481270
H       5.273970    0.815986    2.048173
H       4.542724   -0.299479    0.851036
