18

C      -0.035143    1.586764    0.006766
C       1.506678    1.728434    0.042798
C       1.737974    1.086362    1.431082
C       1.275788   -0.290085    0.919719
O       2.352147   -0.522798   -0.005622
C       1.983383    0.521489   -0.923464
C       0.671301   -0.103939   -1.430417
C       0.013754    0.039429   -0.037522
H      -0.507329    2.014327    0.894244
H      -0.522719    2.007303   -0.875733
H       1.943529    2.706249   -0.153426
H       2.775684    1.029482    1.762337
H       1.126287    1.551059    2.207745
H       1.178867   -1.123109    1.613828
H       2.794093    0.723763   -1.621279
H       0.130357    0.449895   -2.201102
H       0.853500   -1.125043   -1.767998
H      -0.901727   -0.515435    0.161188
