20

C       0.735966    1.529989   -0.251855
C       0.093706    0.155973   -0.002061
C       0.376547   -0.827727   -1.114307
C       1.193298   -1.811753   -0.747835
C       1.640943   -1.708146    0.692178
C       3.131519   -1.356173    0.823019
C       0.634248   -0.634510    1.244673
C       1.162619    0.202531    2.314603
N       1.578600    0.864847    3.166500
H       1.820093    1.448967   -0.373549
H       0.329652    1.973334   -1.166556
H       0.536918    2.216211    0.575981
H      -0.984622    0.311637    0.123100
H      -0.026219   -0.685530   -2.111455
H       1.560638   -2.597384   -1.399440
H       1.474623   -2.651265    1.226548
H       3.365884   -0.413403    0.320064
H       3.425799   -1.264326    1.872207
H       3.743638   -2.139815    0.365264
H      -0.215146   -1.182753    1.665602
