17

O       0.201010   -0.000750    0.034276
C       0.075169    1.199541    0.040995
C      -1.163060    1.979239    0.266110
C      -0.906846    3.290915    0.185763
C       0.542789    3.615746   -0.090536
C       1.280124    4.298530    1.087985
C       1.847236    3.096212    1.853114
O       2.202209    2.154517    0.846116
C       1.223505    2.224245   -0.183445
H      -2.120646    1.512677    0.460591
H      -1.645246    4.077645    0.307748
H       0.636387    4.205564   -1.007234
H       2.094554    4.920913    0.707035
H       0.626257    4.925948    1.699637
H       2.747832    3.321932    2.429006
H       1.095438    2.675710    2.538588
H       1.723184    2.016435   -1.133670
