21

C      -0.036717    1.634758   -0.392377
C      -0.024070    0.213506    0.181907
C      -1.376627   -0.464104    0.070238
O      -1.853059   -0.603806   -1.308176
C      -2.148131   -1.985274   -1.090727
C      -0.886254   -2.762488   -0.821577
C      -1.558585   -1.974637    0.288596
O      -2.033525   -2.547982    1.443105
C      -1.014666   -2.939865    2.351645
H       0.950111    2.100488   -0.315187
H      -0.326679    1.616862   -1.446482
H      -0.751073    2.271172    0.141329
H       0.730758   -0.390409   -0.333864
H       0.256891    0.237270    1.243364
H      -2.134083    0.082813    0.649146
H      -3.065745   -2.389039   -1.500557
H      -1.035465   -3.834356   -0.727764
H       0.051249   -2.456865   -1.276745
H      -1.511836   -3.423045    3.195404
H      -0.316029   -3.648385    1.886862
H      -0.444265   -2.076589    2.721124
