14

N       0.008589   -1.100261   -0.074506
C      -0.023945    0.056062   -0.039476
C      -0.014321    1.480236   -0.001040
O      -1.086354    2.195173    0.607375
C      -0.765684    3.355438   -0.231759
C       0.123448    4.258978    0.606063
O       1.268428    3.434909    0.894593
C       1.251414    2.365869   -0.000249
C       0.229118    2.523486   -1.077005
H      -1.649941    3.796033   -0.689723
H       0.429275    5.164456    0.062007
H      -0.351163    4.537189    1.550191
H       2.214659    1.902047   -0.170569
H       0.339524    2.453839   -2.149513
