21

C       0.258155    1.573452   -0.073598
C      -0.013651    0.086925    0.051026
O       0.795526   -0.713703   -0.853397
C       1.457506   -1.404432    0.227625
C       0.616092   -0.641343    1.243962
O       1.132127    0.006910    2.388751
C       0.100869   -0.998660    2.568186
C      -1.233183   -0.460321    3.033878
C       0.572441   -2.268287    3.241514
H       1.307616    1.796811    0.135505
H       0.020435    1.912045   -1.086458
H      -0.359849    2.136801    0.633096
H      -1.080627   -0.128796   -0.100803
H       1.304879   -2.490278    0.182540
H       2.532696   -1.189387    0.269014
H      -1.490359    0.463704    2.511353
H      -2.028487   -1.192789    2.858338
H      -1.205045   -0.248131    4.108150
H       0.649691   -2.120639    4.324168
H      -0.134743   -3.085989    3.065013
H       1.553996   -2.569809    2.868569
