20

C      -0.136220    1.535895    0.039296
C      -0.020491    0.008976   -0.003873
C      -1.433108   -0.546888   -0.209342
C       1.181261   -0.645302   -0.791052
C       2.150149   -0.120504    0.311129
C       0.914352   -0.701384    1.070261
C       1.031152   -1.917574    0.096502
C       0.703221   -0.740221    2.495473
N       0.512609   -0.757980    3.636575
H       0.807065    2.065461    0.167876
H      -0.589694    1.895925   -0.890662
H      -0.798055    1.837392    0.858313
H      -1.856892   -0.139519   -1.133755
H      -1.495651   -1.632599   -0.273274
H      -2.083600   -0.226849    0.611729
H       1.345769   -0.619082   -1.868246
H       3.074822   -0.686458    0.438832
H       2.337130    0.947552    0.385174
H       0.158125   -2.551844   -0.032774
H       1.933552   -2.519295    0.219947
