19

O       0.066796    1.368047    0.411304
C       0.050009   -0.009686    0.045627
C      -1.399531   -0.529157   -0.023331
O      -2.107297   -0.083313    1.123747
C      -2.110771    0.004533   -1.288962
O      -1.640130   -0.585515   -2.483402
C      -1.366640   -2.076667    0.004634
C      -2.710953   -2.705596   -0.280474
O      -3.180417   -2.788822   -1.394156
H      -0.070120    1.895501   -0.381703
H       0.553676   -0.185505   -0.912052
H       0.595869   -0.534939    0.835713
H      -1.742576    0.790589    1.325353
H      -3.191268   -0.126476   -1.157182
H      -1.933712    1.085210   -1.364855
H      -2.086527   -1.442821   -2.547326
H      -0.671737   -2.419132   -0.768801
H      -1.002697   -2.390547    0.986518
H      -3.274837   -3.096012    0.590553
