23

O      -0.226922    1.627613    0.041015
C       0.026758    0.236668    0.003809
C      -1.345896   -0.440755    0.049043
C      -2.247709   -0.092233   -1.117057
C      -2.329388   -0.978951   -2.337152
C      -3.492337   -0.900349   -1.379078
C       0.980158   -0.292510   -1.112549
C       1.644260   -1.218330   -0.058430
C       1.018270   -0.342130    1.059761
H       0.614709    2.086966   -0.040845
H      -1.212166   -1.528138    0.104592
H      -1.823268   -0.134104    0.989209
H      -2.325880    0.974316   -1.299861
H      -2.428993   -0.514173   -3.312085
H      -1.746413   -1.894716   -2.342680
H      -3.681665   -1.760715   -0.744574
H      -4.389678   -0.380401   -1.696196
H       0.528550   -0.742302   -1.998403
H       1.664779    0.499181   -1.437432
H       1.227797   -2.228717   -0.074554
H       2.732856   -1.297259   -0.079341
H       1.710949    0.433252    1.404050
H       0.590642   -0.838700    1.935335
