15

N      -0.073290    1.338029   -0.024618
C       0.020915   -0.028598   -0.046656
O       1.087215   -0.608341   -0.121385
C      -1.276751   -0.762524   -0.007077
C      -1.388842   -2.094637    0.028766
C      -2.829839   -2.487768    0.049901
O      -3.317776   -3.595786    0.079184
N      -3.515678   -1.288368    0.027114
C      -2.655354   -0.132900   -0.018064
H       0.790549    1.851543    0.049189
H      -0.921476    1.813437    0.230795
H      -0.577137   -2.806642    0.038050
H      -4.520696   -1.252274    0.013869
H      -2.808952    0.528062    0.849462
H      -2.812716    0.471793   -0.923446
