20

C       0.462125    0.618646    0.640452
N       1.220014   -0.098360   -0.363424
C       0.587260   -0.863772   -1.130980
O       1.227724   -1.535817   -2.115681
C       0.471060   -2.509192   -2.825582
C       0.615743   -3.901367   -2.205712
O      -0.200682   -4.840119   -2.908142
C       2.058952   -4.399953   -2.155320
O       2.125913   -5.686755   -1.581730
H       0.595384    1.697316    0.500181
H      -0.618271    0.399708    0.629400
H       0.852215    0.377116    1.635532
H      -0.499862   -1.042240   -1.097377
H      -0.590829   -2.235796   -2.866426
H       0.860508   -2.508586   -3.850851
H       0.214925   -3.889655   -1.185431
H       0.103143   -4.869486   -3.824103
H       2.473267   -4.389693   -3.182211
H       2.672897   -3.728026   -1.549734
H       1.390755   -6.184642   -1.961082
