20

C       0.071586    1.537017   -0.254370
C       0.047832    0.044799    0.082855
O       0.745910   -0.235362    1.290551
C      -1.383673   -0.527275    0.145177
C      -1.479251   -2.061527    0.086480
C      -2.759467   -2.393031    0.883087
N      -2.839445   -1.274205    1.809205
C      -2.073254   -0.199214    1.479857
O      -1.946457    0.816592    2.141923
H       1.103035    1.899923   -0.253351
H      -0.359707    1.723314   -1.244055
H      -0.505495    2.100045    0.484185
H       0.597262   -0.505881   -0.690959
H       0.318520    0.295639    1.976146
H      -1.990735   -0.077132   -0.652095
H      -1.507969   -2.458708   -0.930190
H      -0.608931   -2.482090    0.599958
H      -3.643810   -2.439889    0.231917
H      -2.687981   -3.344937    1.418159
H      -3.419682   -1.261472    2.632718
