20

C      -0.365326    1.439291    0.022329
C       0.012902   -0.024685    0.010126
C       0.611604   -0.765050   -1.115570
C       1.629572    0.059200   -1.902574
C       2.396898    0.209440   -0.568587
C       3.722621   -0.554852   -0.521936
C       2.660878    1.594712   -0.023947
O       2.810542    2.581877   -0.698515
N       1.370556   -0.599561    0.208120
H       0.200773    2.047656   -0.683651
H      -1.425332    1.533737   -0.236869
H      -0.233326    1.867527    1.021969
H      -0.679170   -0.630955    0.593231
H       0.247552   -1.739623   -1.425800
H       2.181169   -0.519616   -2.644989
H       1.270539    0.979173   -2.369955
H       4.453283   -0.100718   -1.198346
H       4.132340   -0.559323    0.493356
H       3.554596   -1.593771   -0.818813
H       2.747891    1.625539    1.087559
