18

C       0.452416    1.379307    0.008133
C       0.087470   -0.071699    0.147026
N      -0.250050   -0.664768    1.226261
O      -0.282593    0.207521    2.323619
C       0.074262   -0.911816   -1.102173
O       1.318868   -0.814117   -1.867716
C       1.388535   -2.244541   -1.935402
C       1.558716   -2.834134   -0.573585
C       0.178690   -2.432188   -1.050408
H       1.157900    1.507423   -0.815740
H      -0.438670    1.981265   -0.208818
H       0.888291    1.756514    0.934076
H      -0.500952   -0.388955    3.047442
H      -0.750727   -0.584409   -1.751876
H       1.693657   -2.688918   -2.875236
H       1.720702   -3.907439   -0.548093
H       2.064682   -2.268990    0.202112
H      -0.652767   -3.118605   -1.117326
