18

C      -0.498661    1.365898   -0.142141
C       0.055349   -0.050709    0.056158
C       1.026984   -0.100455    1.242255
O      -1.091007   -0.869582    0.310019
C       0.722949   -0.530466   -1.214383
N       1.981289   -0.226261   -1.544931
N       2.141163   -0.822230   -2.720279
N       1.103656   -1.497377   -3.191720
C       0.180737   -1.322981   -2.244499
H       0.309820    2.060830   -0.381893
H      -1.223396    1.375552   -0.960295
H      -1.000386    1.699353    0.770679
H       0.519104    0.238877    2.149194
H       1.388068   -1.122243    1.404388
H       1.899816    0.530826    1.059419
H      -0.776306   -1.751752    0.536841
H       3.013293   -0.774022   -3.221969
H      -0.802195   -1.754513   -2.331113
