19

C      -0.108983    1.622923    0.003815
C       0.015088    0.110683    0.032796
C       1.135211   -0.608597   -0.759305
O       2.353297   -0.008967   -0.274083
C       2.135150    0.009372    1.157341
C       0.751984   -0.637400    1.213477
O       0.224970   -0.817679    2.479711
C       0.978072   -1.814516    0.213101
O      -0.192880   -2.595244    0.127025
H       0.869721    2.107822   -0.035024
H      -0.674798    1.951373   -0.874417
H      -0.638339    1.985676    0.891927
H      -0.942753   -0.380417   -0.147522
H       1.166447   -0.693831   -1.844270
H       2.902213   -0.580865    1.670268
H       2.155162    1.034804    1.541160
H      -0.525383   -1.417505    2.391656
H       1.877513   -2.426948    0.354196
H      -0.091036   -3.226312   -0.591763
