21

C       0.094627    1.420489   -0.543069
C      -0.046837    0.013522    0.041532
C      -1.502720   -0.411493    0.187812
O       0.577820   -0.971119   -0.786391
C       1.967388   -0.970499   -0.783695
C       2.676122   -2.087479   -1.585880
C       2.262814   -1.405784   -2.912680
C       2.803972   -0.328148   -1.944610
O       3.894742   -1.247366   -1.557803
H       1.143928    1.719185   -0.618706
H      -0.350331    1.463258   -1.542609
H      -0.415093    2.150648    0.093545
H       0.437997   -0.010862    1.031428
H      -1.999892   -0.407338   -0.787416
H      -1.566440   -1.421653    0.600278
H      -2.038777    0.272822    0.851848
H       2.397675   -0.794124    0.209704
H       2.785720   -3.145725   -1.348020
H       2.908420   -1.625847   -3.763671
H       1.200796   -1.382351   -3.159006
H       3.071819    0.711476   -2.136106
