15

C       0.076635    1.522152    0.178884
C       0.016168    0.015413    0.026876
O       0.695511   -0.558467    1.164445
C       0.748906   -1.894021    1.211276
N       0.240401   -2.647450    0.319741
C       1.446346   -2.359233    2.381612
C       2.020244   -2.816615    3.342094
C       2.668753   -3.329862    4.427442
N       3.220602   -3.768879    5.350570
H       1.112336    1.871809    0.201754
H      -0.429491    1.996287   -0.666985
H      -0.416969    1.842519    1.100393
H      -1.011744   -0.360411    0.006373
H       0.508872   -0.331303   -0.887067
H       0.388820   -3.629847    0.538715
