16

C      -0.068729    1.504279    0.064556
C       0.032107    0.007390   -0.117013
O       1.075553   -0.565760   -0.345148
C      -1.227128   -0.785068   -0.005920
N      -2.382316   -0.205269    0.240638
O      -3.309818   -1.228040    0.273890
C      -2.691386   -2.411483    0.045323
C      -3.552527   -3.623317    0.046953
C      -1.363638   -2.194929   -0.140345
H       0.921198    1.948120   -0.042765
H      -0.757988    1.928661   -0.672203
H      -0.485954    1.738179    1.049040
H      -4.328663   -3.553207   -0.721965
H      -2.948866   -4.511386   -0.147340
H      -4.054204   -3.745980    1.012248
H      -0.583519   -2.908028   -0.342355
