18

N      -0.555081   -0.993638   -0.803226
C      -0.333366    0.073972   -0.418953
C      -0.037556    1.414806    0.075830
C      -0.467476    1.652710    1.550313
C       0.345595    2.894312    1.954354
C       1.697841    2.687180    1.278405
O       2.486184    1.660781    1.923758
C       2.423718    0.807313    0.759724
C       1.468703    1.777003    0.038712
H      -0.573255    2.127598   -0.563095
H      -1.547406    1.780329    1.646736
H      -0.175522    0.795350    2.162635
H      -0.119400    3.807664    1.562416
H       0.447720    3.006240    3.036801
H       2.274290    3.608023    1.140394
H       3.404588    0.700109    0.281517
H       2.029438   -0.188719    0.992039
H       1.790709    2.127365   -0.941003
