19

C      -0.647822    1.501293    0.073111
C       0.364012    0.421139   -0.217883
O       1.385921    0.293480    0.430683
C       0.069635   -0.538510   -1.369355
C       1.339419   -0.808087   -2.193300
O       2.288884   -1.549301   -1.463886
C      -0.709540   -1.817867   -0.957573
C      -1.779065   -1.305589   -1.941625
O      -1.026509   -0.096707   -2.203985
H      -0.785121    2.128320   -0.813333
H      -1.627962    1.059716    0.283493
H      -0.313726    2.098671    0.921794
H       1.057437   -1.400587   -3.069973
H       1.743408    0.149884   -2.559479
H       2.431684   -1.055402   -0.642620
H      -0.198503   -2.745327   -1.214711
H      -1.022794   -1.858132    0.086945
H      -1.912125   -1.903739   -2.850076
H      -2.763529   -1.084035   -1.514856
