15

O       0.002060   -0.064179   -0.352990
C      -0.044081    1.101261   -0.071256
N      -1.169981    1.754208    0.343493
C      -1.487581    3.141211    0.200559
C      -1.695045    3.954198    1.465964
C      -0.478041    4.179252    0.611516
N       0.830201    3.891506    1.097353
C       1.469976    2.874771    0.728772
O       1.123122    1.847085   -0.119356
H      -1.955342    1.121215    0.402505
H      -2.114115    3.375419   -0.658148
H      -2.467345    4.714284    1.482222
H      -1.542091    3.421148    2.397214
H      -0.484623    5.095818    0.027550
H       2.499558    2.733373    1.050767
