21

C       0.225013    1.589168    0.036074
C      -0.029344    0.070003   -0.054770
C       0.551072   -0.476183   -1.365577
C       0.359151   -1.984879   -1.572485
O       0.431891   -2.214983   -2.978214
C       1.384368   -2.806104   -0.831631
C       1.720244   -2.655699    0.454842
C       1.175773   -1.698836    1.415403
C       0.437866   -0.595129    1.216168
H       1.298289    1.801862    0.084791
H      -0.184204    2.105362   -0.837897
H      -0.241919    2.015442    0.929575
H      -1.123174   -0.059833   -0.092469
H       0.057781    0.030168   -2.201627
H       1.618551   -0.239656   -1.433227
H      -0.646945   -2.254435   -1.202997
H       0.302079   -3.156285   -3.131542
H       1.888231   -3.567192   -1.423826
H       2.464458   -3.336031    0.862673
H       1.408419   -1.935331    2.452182
H       0.128111   -0.059464    2.113368
