19

C      -0.009645    1.493396    0.009899
C       0.048446   -0.017149    0.001515
O       0.713121   -0.431354   -1.170684
C       0.811298   -1.839518   -1.260400
C       1.531372   -2.422286   -0.024883
C       0.834788   -1.852498    1.229792
O       0.734940   -0.443466    1.156649
C       1.469439   -3.931527   -0.032951
O       2.425997   -4.662423   -0.051397
H       1.005758    1.896537    0.002404
H      -0.542251    1.850185   -0.874245
H      -0.525436    1.840945    0.907588
H      -0.966064   -0.464614    0.008686
H      -0.194558   -2.286467   -1.349583
H       1.363791   -2.058154   -2.177312
H       2.580387   -2.115801   -0.033486
H      -0.169226   -2.300537    1.333214
H       1.404271   -2.080422    2.133978
H       0.433705   -4.348484   -0.020746
