22

C      -0.155071    1.633569   -0.075083
C       0.133225    0.145391    0.034473
C       1.397400   -0.652946   -0.217256
C       2.701938   -0.166172    0.483007
C       4.073844   -0.594648    0.070684
N       2.438662    1.127967    1.162414
C       2.019281   -0.157173    1.791947
C       0.699813   -0.691000    1.155360
C      -0.033891   -1.826397    1.811681
H      -0.264781    1.909377   -1.130869
H      -1.108024    1.858191    0.419315
H       0.626373    2.242388    0.367145
H      -0.690259   -0.424464   -0.404600
H       1.428248   -1.444581   -0.958464
H       4.389604   -0.086984   -0.849123
H       4.807849   -0.366232    0.851543
H       4.109044   -1.673470   -0.117582
H       3.311515    1.395282    1.620693
H       2.380406   -0.439058    2.774213
H      -0.595089   -1.486068    2.691498
H      -0.748274   -2.284857    1.120355
H       0.656242   -2.610889    2.146784
