23

C      -0.055580    1.492485    0.079292
C       0.015894   -0.033419   -0.015240
C       0.727560   -0.506047   -1.275313
O       0.750405   -1.917705   -1.284861
C       1.389867   -2.460549   -2.416161
C       1.351619   -3.979624   -2.312238
C       2.033564   -4.655904   -3.517198
C       2.009532   -6.111295   -3.439877
C       1.978146   -7.309813   -3.355605
H       0.944610    1.939662    0.092977
H      -0.597778    1.920951   -0.770987
H      -0.570579    1.805802    0.991896
H       0.540306   -0.444655    0.854897
H      -0.992252   -0.463256   -0.003654
H       0.210158   -0.125352   -2.173962
H       1.756775   -0.106200   -1.307645
H       0.887226   -2.126361   -3.341656
H       2.434669   -2.106163   -2.476689
H       1.845327   -4.289692   -1.385914
H       0.310322   -4.309679   -2.243422
H       1.543786   -4.333754   -4.445942
H       3.074549   -4.313640   -3.590905
H       1.955424   -8.369131   -3.290393
