18

C      -0.097591    1.577312    0.240492
C      -0.108789    0.082684   -0.081323
N      -1.441136   -0.483932   -0.076829
N      -2.164595   -0.609171    1.092270
C      -3.297786   -1.133156    0.734565
C      -4.412540   -1.462265    1.662424
N      -3.335660   -1.349467   -0.623471
C      -2.124563   -0.930470   -1.188131
O      -1.777848   -0.959824   -2.351775
H       0.930285    1.952527    0.249524
H      -0.663499    2.140585   -0.507275
H      -0.541354    1.761531    1.222491
H       0.284384   -0.108427   -1.083214
H       0.505224   -0.469221    0.638734
H      -4.119468   -1.191484    2.677597
H      -5.324601   -0.913724    1.401619
H      -4.649968   -2.531754    1.638432
H      -4.083718   -1.746155   -1.164855
