16

O       0.362744    0.155390   -0.682557
C       0.245803    1.280687   -0.272410
N       1.207722    1.948738    0.480664
C       2.619388    1.945669    0.288290
C       2.995360    2.075346   -1.196693
C       2.154256    3.391022   -1.289249
C       1.780081    3.247996    0.195266
C       1.688438    4.321556    1.204854
O       1.878672    5.487067    0.957212
H      -0.672803    1.886996   -0.387085
H       3.255199    1.619215    1.103445
H       4.061911    2.253791   -1.339855
H       2.680874    1.233694   -1.816447
H       2.770086    4.275121   -1.456284
H       1.315179    3.406016   -1.988562
H       1.444415    3.959320    2.226914
