23

C      -0.058953    1.404048    0.069974
O      -0.055266    0.037854   -0.270165
C      -1.209438   -0.625715    0.147499
C      -1.107144   -2.114267   -0.194000
O      -0.070811   -2.586358   -0.590418
C      -2.386817   -2.966171   -0.044149
C      -1.985092   -4.439090    0.131662
C      -3.255120   -2.511839    1.144943
C      -3.183436   -2.803391   -1.361822
H       0.878946    1.829901   -0.293532
H      -0.899204    1.942499   -0.397314
H      -0.120381    1.554678    1.159747
H      -1.357094   -0.533324    1.239289
H      -2.116155   -0.199146   -0.317573
H      -1.447958   -4.591694    1.073061
H      -2.876546   -5.074539    0.141077
H      -1.328365   -4.761248   -0.678040
H      -3.618004   -1.485725    1.032248
H      -4.134940   -3.158733    1.225600
H      -2.709057   -2.579870    2.091738
H      -2.589185   -3.131752   -2.219421
H      -4.092874   -3.412244   -1.322641
H      -3.485918   -1.765286   -1.533597
