17

C      -0.062336    1.415802    0.032246
N      -0.009462   -0.030506    0.012982
C       0.004407   -0.802611   -1.115763
N      -0.091314   -0.197853   -2.377807
C       0.026202   -2.135611   -0.742454
C       0.030674   -2.171510    0.670000
C       0.022043   -0.866185    1.132521
C       0.036789   -0.360407    2.443040
C       0.044832    0.081954    3.566596
H       0.928340    1.863946   -0.115653
H      -0.728317    1.764373   -0.761094
H      -0.443349    1.741756    1.000660
H       0.688349    0.417321   -2.588575
H      -0.154648   -0.896324   -3.107095
H       0.043632   -2.977219   -1.417758
H       0.050278   -3.047016    1.299646
H       0.056410    0.457106    4.559266
