13

N      -0.193631    1.351503   -0.182105
C      -0.054188    0.128465    0.070489
C      -1.177887   -0.857922   -0.099998
N      -1.141058   -1.861618    0.949098
C       0.004795   -2.368091    1.476061
O       0.062063   -3.295133    2.247792
C       1.297974   -1.645065    1.034895
O       2.383247   -2.087499    1.226825
O       1.166825   -0.405416    0.438164
H       0.688342    1.853605   -0.062915
H      -2.116363   -0.305544   -0.058307
H      -1.099773   -1.312831   -1.099440
H      -1.985807   -2.365954    1.178072
