12

N      -0.226090   -1.246723   -0.138712
C      -0.135218   -0.097151   -0.079028
C      -0.008250    1.362960    0.054278
C      -0.201589    1.912129    1.506555
C       1.276193    2.330202    1.387080
O       1.362032    1.790530    0.038346
C      -0.812164    2.038774   -0.976638
N      -1.446402    2.604734   -1.758156
H      -0.926119    2.721499    1.576824
H      -0.425170    1.140674    2.241288
H       1.469688    3.406219    1.395523
H       1.971488    1.822656    2.061087
