22

C      -0.096769    1.570661    0.039713
C       0.029190    0.062190   -0.072424
C      -1.101835   -0.680585    0.619887
C       0.611028   -0.654381   -1.233574
N       1.310180   -0.659498    0.132948
C       2.412630    0.165482   -0.472831
C       1.801594    0.026877   -1.901096
C       2.588998   -0.926088   -2.795191
O       1.454829    1.206783   -2.609501
H       0.578140    2.112026   -0.619679
H      -1.116568    1.866239   -0.227951
H       0.074185    1.885917    1.076216
H      -2.061646   -0.462659    0.139125
H      -0.931966   -1.759677    0.595888
H      -1.170245   -0.374168    1.669228
H       0.144595   -1.551800   -1.633758
H       2.492028    1.181310   -0.078221
H       3.370893   -0.344390   -0.346869
H       2.807174   -1.864949   -2.278685
H       2.019700   -1.150458   -3.702948
H       3.546043   -0.476310   -3.088830
H       2.232137    1.504468   -3.094783
