18

C       0.040498    1.363558    0.084447
O      -0.096802   -0.034075   -0.092274
C       0.616124   -0.558986   -1.155188
C       2.184815   -0.543108   -1.275807
C       1.846615   -1.681528   -2.267560
C       0.708367   -2.101172   -1.307311
O       1.153948   -1.003493   -3.334204
C       0.234090   -0.169369   -2.603744
H       1.094121    1.655209    0.197902
H      -0.392067    1.932689   -0.750092
H      -0.497898    1.621128    0.998995
H       2.679583    0.340067   -1.685708
H       2.671149   -0.889637   -0.362548
H       2.581743   -2.367721   -2.680468
H       1.061154   -2.582695   -0.394305
H      -0.144394   -2.631532   -1.736221
H      -0.803636   -0.425605   -2.848002
H       0.410777    0.885469   -2.843162
