18

O       0.307697   -0.000435    0.140646
C       0.135765    1.176043    0.104692
C      -1.085992    2.125479    0.188319
C      -2.032747    2.071221    1.355691
C      -3.434286    2.622306    1.225129
C      -3.215009    1.134960    1.314632
C      -0.041076    3.240191    0.053376
C       1.031034    3.115089    1.048755
N       1.099018    2.238083   -0.162554
H      -1.644446    2.016637   -0.749937
H      -1.563866    2.196808    2.327187
H      -3.862294    3.134430    2.079476
H      -3.728772    3.037793    0.266884
H      -3.357487    0.542126    0.417647
H      -3.491728    0.624070    2.229535
H      -0.126537    4.096135   -0.604873
H       1.818096    3.861672    1.057858
H       0.841245    2.651139    2.013333
