21

C       0.109020    1.464432    0.105393
N       0.131317    0.017659    0.120033
C       0.446924   -0.631802   -0.919849
C       0.834505   -0.121717   -2.290116
O       0.469666   -1.986900   -0.903199
C       0.141630   -2.620251    0.339872
C       0.251578   -4.104059    0.139316
C      -0.643041   -5.003912    0.908962
N      -0.819186   -4.845946   -0.543255
H       0.786025    1.846691    0.878863
H       0.390411    1.931054   -0.848662
H      -0.895770    1.816684    0.368700
H       1.739794    0.490098   -2.235243
H       1.018655   -0.962047   -2.959073
H       0.041282    0.500766   -2.713806
H       0.824490   -2.264211    1.119661
H      -0.872165   -2.331182    0.643442
H       1.249235   -4.455157   -0.115269
H      -0.287924   -5.980103    1.225744
H      -1.368638   -4.549253    1.579378
H      -1.599861   -4.221131   -0.733110
