21

O      -0.115679    1.364839   -0.902703
C       0.067214    0.308466    0.026188
C      -1.243151   -0.381471    0.313495
O      -1.771169   -1.169863   -0.767000
C      -1.428434   -1.836907    0.456621
C      -0.340704   -2.871161    0.418585
C       0.215661   -3.397514    1.774705
C       0.256491   -4.823168    1.161938
C      -0.734572   -4.338346    0.070135
H      -0.526215    0.975145   -1.683194
H       0.814888   -0.412170   -0.331475
H       0.454531    0.768081    0.942194
H      -1.987969    0.268059    0.777865
H      -2.304546   -2.148205    1.033103
H       0.473224   -2.540991   -0.230945
H       1.148190   -2.962612    2.141997
H      -0.536910   -3.321895    2.566817
H       1.239764   -5.053770    0.742251
H      -0.053110   -5.656805    1.795911
H      -1.773642   -4.543495    0.348170
H      -0.578240   -4.672551   -0.957625
