18

C       1.005497    0.053099   -0.066227
C      -0.499094    0.329384   -0.079807
N      -1.241915   -0.905791    0.154484
C      -2.081334   -1.299380   -0.677867
O      -2.506277   -0.700561   -1.894057
C      -3.552996   -1.697965   -2.014520
C      -2.912361   -3.016115   -2.222524
O      -1.731297   -3.179294   -2.921780
C      -3.020451   -2.446261   -0.790501
H       1.567386    0.986552   -0.170533
H       1.298595   -0.429169    0.870379
H       1.288373   -0.610282   -0.889506
H      -0.745300    1.017406    0.738404
H      -0.788288    0.821259   -1.017484
H      -4.538634   -1.345001   -2.289339
H      -3.587736   -3.851765   -2.382938
H      -1.346593   -2.300275   -3.036495
H      -3.513386   -2.960862    0.021333
