17

N       0.057666    1.230928    0.004962
C      -0.029249   -0.035722    0.001255
N      -1.236406   -0.706521    0.007727
C      -2.595638   -0.331464    0.019700
O      -3.143094    0.728425    0.027153
C      -3.030768   -1.814310    0.018954
C      -1.533270   -2.138758    0.006199
C      -0.795051   -3.184152   -0.764267
C      -0.783024   -3.188356    0.759129
H       1.036768    1.511757   -0.001117
H       0.817208   -0.735698   -0.007226
H      -3.575032   -2.115452    0.916300
H      -3.589277   -2.110508   -0.871254
H      -1.372509   -3.943432   -1.281035
H       0.119330   -2.896108   -1.273006
H       0.139294   -2.903150    1.254976
H      -1.352320   -3.950481    1.280746
