16

C       0.012115    1.598300    0.006411
C      -0.032870    0.104851   -0.046309
C       0.540773   -0.889579   -1.090094
C       1.476203   -1.419655    0.017245
N       0.625552   -0.719639    1.062182
C      -0.609945   -1.463679    1.251709
O      -0.884077   -2.305579    2.048712
C      -1.259974   -0.841736   -0.000705
O      -0.712968   -1.614745   -1.113920
H       1.045851    1.958415    0.001522
H      -0.508950    2.034681   -0.851545
H      -0.464414    1.962316    0.922363
H       0.911965   -0.687472   -2.096408
H       1.552205   -2.501884    0.144613
H       2.474704   -0.972788   -0.011796
H      -2.324174   -0.630638   -0.113072
