18

C      -0.159629    1.566682   -0.125336
C      -0.070852    0.075669   -0.025635
C      -0.067646   -0.808651   -1.052389
O       0.028500   -2.101749   -0.577233
C       0.080933   -2.014656    0.767776
N       0.122285   -3.200732    1.475247
C       0.027555   -0.711515    1.184776
C       0.078486   -0.268752    2.612628
O       1.055831   -0.994360    3.376141
H       0.699035    2.056433    0.349672
H      -0.187405    1.888695   -1.169926
H      -1.059586    1.954260    0.366327
H      -0.121647   -0.710925   -2.123013
H       0.580066   -3.953201    0.978037
H       0.510087   -3.055169    2.400013
H       0.263656    0.813686    2.670665
H      -0.865014   -0.457989    3.139046
H       1.899563   -0.873482    2.926008
