15

C       0.760770    1.120342    0.270286
C      -0.279443    0.094219   -0.101546
O      -1.293489   -0.079224    0.540398
C      -0.030534   -0.756147   -1.335707
C      -0.254831   -2.235613   -1.102799
N      -1.221863   -1.466694   -1.858087
C       0.947127   -0.317025   -2.293537
C       1.780234    0.055494   -3.076209
H       1.750999    0.657737    0.334129
H       0.825920    1.880499   -0.515400
H       0.494136    1.585422    1.219389
H       0.347148   -2.930967   -1.679555
H      -0.495361   -2.532694   -0.085687
H      -1.987975   -1.211222   -1.231429
H       2.506942    0.381635   -3.778701
