18

O       0.271842    1.320628   -0.137420
C       0.008111   -0.033687   -0.027238
C      -0.487574   -0.733369    1.230726
C      -1.159337    0.077913    2.344731
C      -2.467322    0.612231    1.759212
N      -2.289416    1.597580    0.669397
C      -2.576076    0.172376    0.345933
C      -1.364717   -0.670675   -0.017509
O      -1.625961   -1.827579   -0.757490
H      -0.550403    1.779192    0.126918
H       0.748401   -0.617785   -0.570703
H       0.004487   -1.662256    1.498894
H      -1.381206   -0.573306    3.195650
H      -0.524519    0.893364    2.709332
H      -3.334708    0.728690    2.400572
H      -3.127851    2.160822    0.559936
H      -3.518226   -0.079927   -0.127188
H      -1.526939   -1.611797   -1.691239
