11

O      -0.331060    0.256536    0.328211
C       0.172927    1.328108    0.124645
C       1.469669    1.526433   -0.647818
N       1.461130    2.739737   -1.438154
C       2.257359    3.808574   -1.143628
O       3.021226    3.863601   -0.205762
H      -0.277209    2.276389    0.497676
H       2.283516    1.641173    0.079237
H       1.667246    0.637836   -1.255102
H       0.875939    2.789632   -2.256885
H       2.124894    4.632708   -1.870292
