18

C      -0.885611    1.163294   -0.246164
C      -0.005771   -0.066588   -0.073601
N       1.306968   -0.036209   -0.781721
C       2.095719   -0.406015    0.423721
C       2.626034   -1.837255    0.518257
C       3.173464    0.620171    0.741479
O       4.105582    0.418893    1.474956
C       0.775736   -0.204777    1.241544
O       0.506271   -0.170718    2.400547
H      -0.315350    2.075470   -0.051204
H      -1.274697    1.215733   -1.267425
H      -1.732849    1.121587    0.445083
H      -0.591695   -0.979583   -0.260171
H       1.389236   -0.699174   -1.544199
H       3.347576   -2.025276   -0.283899
H       3.140572   -1.972314    1.471721
H       1.818189   -2.570597    0.440206
H       3.007107    1.596019    0.236333
