21

C      -0.088759    1.504011    0.012158
C       0.012069   -0.027454    0.002631
C       0.741744   -0.508389   -1.260983
O       0.929365   -1.911219   -1.257378
C       1.864714   -2.327922   -0.281476
C       1.643619   -1.695631    1.079966
O       2.132630   -0.356310    1.259101
C       0.708795   -0.568297    1.248202
C       0.020289   -0.353951    2.576793
H       0.903212    1.952904    0.125986
H      -0.520280    1.868540   -0.925987
H      -0.721374    1.867796    0.826308
H      -0.998084   -0.458330   -0.015148
H       0.142913   -0.280630   -2.147700
H       1.707381    0.012973   -1.353034
H       1.758864   -3.414711   -0.203950
H       2.894775   -2.108360   -0.609331
H       1.833029   -2.346500    1.934719
H      -0.096146    0.712409    2.792994
H      -0.976502   -0.808052    2.573790
H       0.603955   -0.799736    3.386021
