20

C      -0.095806    1.565428   -0.058738
C       0.102198    0.062855    0.003554
N       1.298188   -0.559294   -0.759091
C       2.153442   -0.125957    0.446900
C       0.881296   -0.670258    1.134542
C       0.544920   -0.752617    2.618850
C       1.520604   -1.528750    3.375203
C       2.346402   -2.172880    3.965203
C       1.004564   -1.805925    0.094723
H      -0.289114    1.867820   -1.093303
H      -0.970596    1.847672    0.537175
H       0.755416    2.144110    0.306027
H      -0.830364   -0.433269   -0.292245
H       3.071326   -0.708587    0.555003
H       2.369910    0.941922    0.487437
H       0.481079    0.263516    3.030699
H      -0.453797   -1.194088    2.737012
H       3.066990   -2.739729    4.500648
H       0.094287   -2.335440   -0.202156
H       1.855892   -2.485112    0.178837
