23

C      -0.235807    1.130822   -0.220213
O       0.553718   -0.002485    0.091286
C       0.948173   -0.701001   -1.046346
C       1.431698   -2.102578   -0.848154
C       0.115779   -1.854605   -1.571873
C      -1.162931   -2.210728   -0.838765
C       0.110568   -2.037616   -3.086000
C      -0.089462   -3.489673   -3.526147
O      -0.837977   -1.173172   -3.712653
H       0.330951    1.859798   -0.818733
H      -1.139659    0.856401   -0.780839
H      -0.521427    1.594865    0.726667
H       1.456298   -0.082391   -1.789065
H       2.295427   -2.437908   -1.413652
H       1.372335   -2.495936    0.161081
H      -1.117889   -1.861664    0.195087
H      -2.034156   -1.735133   -1.304863
H      -1.336408   -3.292133   -0.824035
H       1.080478   -1.693082   -3.466989
H      -1.065833   -3.870001   -3.203187
H      -0.041038   -3.562694   -4.616087
H       0.677935   -4.141030   -3.096717
H      -1.712285   -1.555331   -3.584583
