16

O      -0.102543   -0.040106   -0.343988
C      -0.020306    1.137592   -0.102270
C       1.272155    1.887529    0.124831
C       2.491938    0.980663    0.084155
C       2.916397    0.422479   -1.293036
O       4.196823    1.082761   -1.215959
C       3.873495    1.674083    0.055862
C      -1.243857    1.966765   -0.012791
N      -2.188055    2.629983    0.062156
H       1.332486    2.678789   -0.637177
H       1.189672    2.419624    1.083260
H       2.404613    0.207249    0.849157
H       3.013375   -0.666379   -1.356862
H       2.322962    0.775068   -2.147065
H       3.847597    2.771532    0.006112
H       4.575005    1.373251    0.843004
