19

C       0.059860    1.467456   -0.231411
C      -0.161266    0.014775    0.175665
N       0.936733   -0.450850    1.024277
C       0.995447   -1.799893    1.348299
C       1.452856   -2.410313    2.480711
C       1.985830   -1.952192    3.786569
O       1.381974   -3.775018    2.252655
C       0.871531   -3.888784    1.016549
N       0.620227   -2.768039    0.422543
H       1.007329    1.580464   -0.766021
H      -0.751198    1.810905   -0.880111
H       0.084166    2.128568    0.643360
H      -1.140322   -0.093137    0.672227
H      -0.184977   -0.630710   -0.705057
H       1.081942    0.145068    1.828770
H       1.491891   -2.460854    4.622248
H       3.064977   -2.124865    3.887200
H       1.813719   -0.878036    3.904825
H       0.718236   -4.887596    0.638676
