17

C       0.002941    1.512273   -0.012676
C       0.050012    0.004529   -0.049211
C       0.475403   -0.716630   -1.326020
C       0.359285   -2.175969   -0.856243
O       0.583183   -3.178321   -1.482141
C      -0.100895   -2.039884    0.572473
C       0.604025   -0.787524    1.188013
O      -0.587693   -0.455015    1.977970
C      -1.084658   -0.827151    0.647809
H       0.988569    1.939742   -0.226513
H      -0.693060    1.900269   -0.764316
H      -0.320299    1.855328    0.972846
H      -0.184208   -0.524342   -2.179522
H       1.498913   -0.484887   -1.641058
H      -0.275707   -2.920850    1.183601
H       1.577418   -0.733374    1.677470
H      -2.162686   -0.821133    0.481024
