16

C      -0.227174    1.207473    0.071647
C      -0.098108   -0.236508   -0.064179
C       0.029781   -1.429804   -0.169608
C       0.168771   -2.880743   -0.304657
N      -0.981466   -3.630108   -0.809700
C      -2.039686   -3.019056   -1.098787
O      -3.160043   -3.646181   -1.576586
C      -3.296965   -5.003856   -1.406440
O      -4.194044   -5.593013   -1.920797
H       0.701411    1.648762    0.449552
H      -0.451357    1.680194   -0.890572
H      -1.028428    1.472738    0.769669
H       1.013015   -3.112499   -0.966761
H       0.434217   -3.319119    0.666143
H      -2.211877   -1.943838   -1.036975
H      -2.520847   -5.426041   -0.755727
