19

C       0.082436    1.444855   -0.008339
O      -0.045362    0.034157   -0.053667
C       0.656347   -0.566770   -1.086427
O       2.080667   -0.464913   -0.859680
C       2.466286   -1.714077   -0.456046
N       3.778453   -1.786289   -0.073516
N       1.631690   -2.672136   -0.526410
C       0.411555   -2.102302   -1.114342
C      -0.849874   -2.564663   -0.391388
H       1.115277    1.748113    0.199260
H      -0.236001    1.902977   -0.956584
H      -0.567378    1.798146    0.794740
H       0.461042   -0.052479   -2.036678
H       4.152276   -0.944504    0.337352
H       4.009242   -2.634684    0.420232
H       0.348739   -2.416429   -2.166185
H      -0.825729   -2.265975    0.658028
H      -1.747216   -2.139715   -0.851195
H      -0.913111   -3.654462   -0.444309
