14

O       0.017311    1.315686    0.007743
C      -0.040750   -0.002786    0.001408
C      -1.262172   -0.626498    0.005157
C      -1.502558   -2.012136   -0.000937
C      -0.592283   -3.039192   -0.011099
C       0.821692   -2.935365   -0.017475
N       1.649253   -1.924934   -0.017077
C       1.344708   -0.595699   -0.009887
O       2.235092    0.259611   -0.011824
H       1.000684    1.479049    0.002107
H      -2.123292    0.034475    0.013380
H      -2.551868   -2.297262    0.003094
H      -0.980498   -4.052788   -0.014290
H       1.332176   -3.902292   -0.024069
