13

C      -0.163233    1.533719    0.012404
C       0.160355    0.052182    0.001069
O       1.273193   -0.407923   -0.010758
N      -0.979971   -0.758179    0.007902
C      -1.002254   -2.129451    0.001085
N       0.000679   -2.965974   -0.011611
O      -0.623046   -4.187246   -0.012733
N      -1.982814   -4.014981   -0.001168
N      -2.226238   -2.779015    0.008365
H       0.771927    2.091536    0.008006
H      -0.754948    1.810970   -0.866339
H      -0.740604    1.800775    0.903755
H      -1.892871   -0.328784    0.018215
