21

C      -0.038182    1.592870   -0.009192
C       0.011928    0.061522    0.060211
C       0.769986   -0.592602   -1.142578
C       1.575377   -1.803383   -0.577750
C       1.600879   -1.492025    0.890665
C       0.772309   -0.508842    1.227884
C       0.783060   -0.313530    2.711159
O       1.750390   -1.258703    3.188292
C       2.256121   -2.057555    2.110148
H       0.972308    2.016046   -0.017530
H      -0.550321    1.925439   -0.918248
H      -0.573928    2.015900    0.847106
H      -1.025903   -0.305468    0.090295
H       0.094766   -0.877476   -1.954023
H       1.470091    0.143139   -1.553522
H       1.068675   -2.759484   -0.770809
H       2.569788   -1.887820   -1.031318
H       1.084177    0.698790    3.021562
H      -0.197288   -0.513718    3.175294
H       2.004387   -3.117946    2.278384
H       3.354842   -1.987468    2.090634
