20

C      -0.288695    1.510810    0.053688
C      -0.036182    0.007308    0.009986
C       0.848620   -0.382004   -1.200940
N       0.557263   -1.684153   -1.772267
C       0.819278   -2.821256   -1.299893
O       1.424024   -3.279344   -0.174160
C       1.821846   -2.435234    0.909189
C       0.671951   -1.677071    1.596428
O       0.561167   -0.317483    1.258178
H       0.659099    2.058150    0.086193
H      -0.845385    1.832933   -0.830514
H      -0.862723    1.770261    0.946446
H      -0.994328   -0.528144   -0.085855
H       0.659997    0.345744   -1.997001
H       1.898730   -0.253432   -0.910974
H       0.525342   -3.701372   -1.874344
H       2.262402   -3.138679    1.620468
H       2.603496   -1.733036    0.604775
H      -0.268787   -2.221751    1.417126
H       0.861258   -1.685246    2.675085
