18

O      -0.037594    1.310283   -0.401614
C      -0.051710   -0.034773    0.064057
C      -1.472822   -0.512937    0.073415
C      -2.541894    0.129783    0.942140
N      -3.731235   -0.665662    0.616028
C      -3.643149   -1.100611   -0.789592
C      -3.314459   -2.045927    0.311373
C      -1.806092   -1.983827   -0.067515
C      -2.142423   -1.018085   -1.187141
H       0.858121    1.648354   -0.308804
H       0.558525   -0.686452   -0.581322
H       0.365213   -0.102187    1.081921
H      -2.323789    0.048610    2.012781
H      -2.709506    1.180082    0.689246
H      -4.504955   -1.012023   -1.438222
H      -3.853378   -2.881734    0.738461
H      -1.089101   -2.792312   -0.038294
H      -1.727368   -0.931266   -2.180769
