19

C      -0.001930    1.590526    0.029239
C       0.101550    0.072865   -0.019075
C       0.812861   -0.651815   -1.159866
C       2.302321   -0.774507   -0.793770
C       2.504808   -0.131880    0.573443
C       1.092614   -0.696041    0.933561
C       0.727680   -0.976978    2.290034
C       0.412811   -1.208284    3.428673
C       1.291367   -1.751768   -0.249711
H       0.954912    2.079180   -0.173170
H      -0.716738    1.947395   -0.720480
H      -0.356084    1.925166    1.010555
H      -0.889298   -0.373428    0.117764
H       0.485880   -0.748290   -2.187458
H       3.047545   -0.959055   -1.556281
H       3.276809   -0.653437    1.144277
H       2.655425    0.949095    0.654966
H       0.137298   -1.412093    4.433456
H       1.207128   -2.827576   -0.287536
