19

C      -0.125126    1.512623    0.004060
C      -0.004674    0.013716   -0.018214
C       0.055240   -0.743891    1.289630
C       1.343843   -0.484776    2.038213
C       2.637435   -1.012919    1.481965
N       1.238275    0.185827    3.122002
O       2.484584    0.366879    3.743932
N       0.054454   -0.695343   -1.080846
O      -0.015130    0.097261   -2.238341
H       0.572063    1.965463   -0.705807
H      -1.131600    1.815439   -0.307198
H       0.064606    1.902847    1.005517
H      -0.779733   -0.441415    1.929715
H      -0.035871   -1.812680    1.071068
H       3.414884   -0.245355    1.520343
H       2.994747   -1.852844    2.088940
H       2.507706   -1.353690    0.453261
H       2.248140    0.881938    4.522388
H       0.047415   -0.561754   -2.937607
