21

C      -0.162154    1.586603   -0.023125
C       0.032721    0.085259    0.037487
C       1.327679   -0.620699   -0.317643
C       2.616881    0.106508   -0.647142
O       3.733705   -0.424665    0.060927
C       3.876273    0.055510    1.370406
O       2.954928   -0.435158    2.306353
C       1.637989    0.093328    2.175286
C       0.831744   -0.627363    1.112265
H       0.719575    2.152496    0.285491
H      -0.409825    1.901161   -1.042947
H      -0.989195    1.893356    0.626665
H      -0.858351   -0.454883   -0.274076
H       1.222166   -1.563771   -0.846172
H       2.852725   -0.010107   -1.709533
H       2.538125    1.185326   -0.450015
H       4.857935   -0.283780    1.709289
H       3.837375    1.162514    1.362089
H       1.165734   -0.032831    3.154549
H       1.695086    1.173977    1.980743
H       0.424352   -1.574491    1.454086
