16

O       0.018189    0.038634    0.091905
C      -0.011401    1.233819    0.075842
C      -1.101226    2.301690   -0.018450
C      -1.117794    3.195429    1.276770
C      -0.011477    2.776866    2.279706
C       1.038001    3.248304    1.239823
C      -0.073553    4.099400    0.550333
N      -0.073538    3.231184   -0.691307
C       1.020910    2.353741   -0.054819
H      -2.046115    2.095364   -0.521531
H      -2.092247    3.517269    1.638889
H      -0.013245    3.451043    3.141388
H       0.019939    1.741216    2.630657
H       2.007338    3.617819    1.568631
H      -0.101591    5.185239    0.468342
H       1.956992    2.193549   -0.590137
