14

N      -0.093894    1.239774    0.256659
C      -0.043194    0.004808   -0.001552
O       1.115524   -0.693823   -0.245565
C       0.830166   -1.967996   -0.849841
C      -0.646326   -2.227639   -0.613512
C      -1.101840   -2.145872    0.810853
C      -1.200450   -0.922654   -0.083316
H       0.840378    1.650174    0.214130
H       1.058169   -1.912845   -1.921464
H       1.489993   -2.709746   -0.388370
H      -1.189020   -2.832717   -1.328716
H      -2.037814   -2.629084    1.065709
H      -0.358428   -2.146499    1.601843
H      -2.166863   -0.517027   -0.346104
