13

O      -0.041915   -0.054888   -0.001948
C      -0.036237    1.144039    0.007551
N       1.150490    1.899656    0.000048
C       2.416151    1.348662   -0.018132
C       3.281793    2.407218   -0.019212
N       2.601277    3.598121   -0.002347
C       1.325500    3.292632    0.009121
C       0.218052    4.265394    0.028585
O       0.379350    5.459805    0.037109
H      -0.943022    1.765601    0.022455
H       2.548736    0.280584   -0.027891
H       4.360649    2.379285   -0.031257
H      -0.802062    3.826259    0.035148
