19

O       0.201525    1.461701   -0.033044
C       0.061580    0.067581    0.051450
C      -0.002059   -0.664900    1.410298
C      -1.037679    0.229553    2.184503
C      -2.144368    0.141071    1.102901
C      -2.750403    1.017929   -0.049550
C      -2.416739   -0.187312   -1.027584
C      -1.352742   -0.547024    0.014168
O      -0.765435   -1.709162    0.692858
H       1.132233    1.669643   -0.156375
H       0.710575   -0.465817   -0.650222
H       0.867076   -1.060978    1.935270
H      -1.343117   -0.191283    3.144091
H      -0.614416    1.224013    2.344019
H      -2.930378   -0.543149    1.435109
H      -3.802596    1.290130    0.044799
H      -2.154348    1.897530   -0.288342
H      -3.240085   -0.905123   -1.063283
H      -2.080636    0.039791   -2.041720
