18

C       0.234335    1.461218    0.290470
C      -0.049358    0.011797   -0.027937
C       0.624293   -0.733080   -1.152130
C       1.630984   -0.104284   -2.088435
N       0.930389   -1.044742    0.232531
C       2.189037   -0.884632    0.816528
N       2.118293   -0.434739    2.123452
O       3.236519   -1.148754    0.261617
H       1.247827    1.759363    0.016593
H      -0.471975    2.102649   -0.247259
H       0.114968    1.655296    1.361066
H      -1.069194   -0.291928    0.210669
H       0.027069   -1.511997   -1.626774
H       2.200880    0.699359   -1.620955
H       2.350710   -0.854275   -2.424492
H       1.111620    0.298191   -2.964894
H       1.262662   -0.609043    2.626971
H       2.966532   -0.578931    2.649486
