21

O      -0.182981    1.330511   -0.499708
C      -0.002034   -0.050828   -0.228611
C      -1.370621   -0.629708    0.114015
C      -1.359087   -2.140459    0.405748
C      -0.765929   -2.484793    1.787382
O      -0.475145   -3.859329    1.923568
C      -2.773602   -2.681468    0.306837
C      -3.219484   -3.562567   -0.778994
O      -2.951305   -4.094144    0.524062
H       0.677996    1.716665   -0.684527
H       0.411940   -0.579150   -1.103246
H       0.701561   -0.201447    0.604093
H      -1.778546   -0.082719    0.973520
H      -2.039464   -0.419152   -0.729258
H      -0.739355   -2.655075   -0.340443
H       0.179437   -1.952935    1.937283
H      -1.458813   -2.131872    2.572390
H      -1.251204   -4.343629    1.613428
H      -3.531547   -2.078111    0.810612
H      -4.267308   -3.582490   -1.072632
H      -2.512066   -3.852233   -1.554336
