15

O      -0.005708    1.430430    0.007629
C       0.007920    0.016518    0.001763
C      -1.397046   -0.485926    0.011873
C      -2.530723    0.238206    0.023761
C      -3.790696   -0.588303    0.031379
C      -3.261413   -2.023108    0.022727
O      -3.893084   -3.042349    0.023893
C      -1.707685   -1.925834    0.009660
O      -0.943443   -2.861713   -0.000043
H       0.903793    1.741441    0.001169
H       0.521825   -0.389830   -0.884986
H       0.537086   -0.397069    0.876088
H      -2.542870    1.321710    0.027472
H      -4.415750   -0.410097    0.915119
H      -4.429897   -0.404649   -0.841061
