20

C       0.062334    1.607908    0.066705
C      -0.035241    0.078016    0.020630
C       0.738088   -0.573903    1.167335
O       2.108651   -0.218410    1.034719
C      -1.488403   -0.377040    0.044029
C      -2.348729   -0.146446   -1.219291
C      -2.543721   -1.675037   -1.190631
O      -1.633422   -1.815664   -0.081078
H       1.109050    1.917777    0.074389
H      -0.428577    2.068018   -0.796919
H      -0.412758    2.003822    0.972628
H       0.414086   -0.282656   -0.914479
H       0.329601   -0.224060    2.131272
H       0.599846   -1.662513    1.120214
H       2.601304   -0.664540    1.729097
H      -1.972001   -0.026619    0.969520
H      -3.246836    0.459123   -1.091859
H      -1.784003    0.223356   -2.077858
H      -3.556930   -2.008119   -0.930704
H      -2.205372   -2.231346   -2.072496
