16

C      -0.019497    1.490230    0.083047
C       1.374106    2.153524   -0.046181
C       2.187003    1.416214   -1.060942
N       3.211805    1.846231   -1.787514
N       3.585396    0.746754   -2.448092
N       2.890178   -0.363666   -2.213778
C       1.983440    0.045217   -1.323005
C       0.926436   -0.707216   -0.676323
C       0.000726   -0.024710    0.012858
H      -0.492435    1.816472    1.014645
H      -0.671813    1.856285   -0.724811
H       1.276844    3.213072   -0.297165
H       1.889895    2.105665    0.923061
H       4.344539    0.763397   -3.108587
H       0.901907   -1.787322   -0.767384
H      -0.815418   -0.553151    0.496536
