19

C      -0.329902    1.424188    0.026760
C       0.091821   -0.046086   -0.038189
O       0.990543   -0.276416   -1.123492
C       0.785930   -0.537003    1.222081
C       2.080744    0.166790    1.583143
C      -0.105022   -1.027457    2.338290
C       0.681105   -2.014559    1.508770
H       0.541493    2.078703    0.117826
H      -0.873187    1.709298   -0.882159
H      -0.992895    1.603871    0.878772
H      -0.816705   -0.657583   -0.174781
H       0.626568    0.150738   -1.905184
H       1.915588    1.217545    1.846504
H       2.555438   -0.314715    2.443492
H       2.779636    0.133400    0.742693
H       0.214358   -0.843119    3.358620
H      -1.180869   -0.987503    2.198875
H       0.139684   -2.634677    0.802301
H       1.533107   -2.505336    1.966795
