22

C      -0.531354    1.297262   -0.209559
C       0.052347   -0.101241   -0.053356
C       1.484079   -0.342967   -0.580256
O       1.942414   -0.788447    0.710934
C       0.644392   -0.549956    1.313906
C       0.710215    0.450836    2.457226
N       1.292782   -0.169688    3.640117
C       2.752729   -0.174904    3.710378
C       1.953628    0.726223    4.584192
H       0.158310    2.069723    0.144352
H      -0.745521    1.504107   -1.263752
H      -1.470983    1.405039    0.342408
H      -0.658648   -0.837562   -0.437482
H       1.595847   -1.119693   -1.346704
H       2.012873    0.560431   -0.915212
H       0.224483   -1.487287    1.700007
H       1.272156    1.344383    2.131907
H      -0.308405    0.773227    2.710520
H       3.198090   -1.079927    4.112873
H       3.298594    0.271523    2.883602
H       1.970448    1.790467    4.352614
H       1.807079    0.494075    5.635317
