21

C      -2.268532    1.051532    1.599033
C      -1.778434   -0.379138    1.465791
O      -1.745956   -1.131851    2.414578
C      -1.318975   -0.803918    0.077146
C      -0.984201   -2.291927   -0.054679
C      -2.251525   -3.157087   -0.117002
O      -1.972580   -4.549768   -0.088200
C      -0.085092   -2.552101   -1.270273
O       1.144846   -1.838923   -1.214383
H      -2.465672    1.282147    2.646565
H      -1.533182    1.753877    1.191973
H      -3.188599    1.185240    1.018088
H      -2.077188   -0.496051   -0.657232
H      -0.424708   -0.215124   -0.168666
H      -0.436293   -2.585513    0.852498
H      -2.932099   -2.872227    0.696169
H      -2.776314   -2.980117   -1.064631
H      -1.673756   -4.765830    0.800964
H       0.076563   -3.632236   -1.375181
H      -0.582934   -2.204844   -2.183939
H       1.668483   -2.215308   -0.499707
