11

O      -0.393536    0.160502    0.043721
C      -0.051323    1.264182   -0.279315
C       1.286075    1.881716    0.063947
C       1.311559    2.702386    1.380069
C       2.299053    1.615815    1.817038
O       2.950794    1.354473    2.771030
O       2.231346    0.932535    0.624958
H      -0.718594    1.951539   -0.848424
H       1.709808    2.393958   -0.805696
H       1.735961    3.704723    1.318298
H       0.383979    2.722702    1.954739
