15

C      -0.051330    1.550270    0.002278
C       1.446805    1.912209   -0.040964
N       2.186474    1.484877    1.156543
C       2.292200    0.672026   -0.086028
C       1.322997   -0.446730   -0.053923
N       1.402164   -1.746906   -0.087637
O       0.065202   -2.166915   -0.004238
C      -0.747053   -1.086601    0.076902
C      -0.009119    0.045550    0.040635
H      -0.533733    1.994739    0.878517
H      -0.565677    1.926838   -0.888993
H       1.755139    2.819441   -0.549609
H       3.030469    2.046256    1.250311
H       3.234869    0.609513   -0.614959
H      -1.800297   -1.311173    0.140848
