21

C       0.067693    1.368588   -0.105242
O      -0.022922   -0.011397    0.178752
C      -1.306242   -0.570665    0.065147
C      -2.005568   -0.607428   -1.331338
C      -2.586901   -1.978855   -0.860604
C      -1.308662   -2.116213    0.024150
C      -3.767326   -1.710660    0.047671
C      -3.619314   -0.797798    1.007397
C      -2.298068   -0.073426    1.139336
H       1.131155    1.619554   -0.121363
H      -0.365922    1.613545   -1.085842
H      -0.423224    1.991592    0.655781
H      -2.717851    0.178822   -1.591823
H      -1.261899   -0.730679   -2.123517
H      -2.780157   -2.742474   -1.613570
H      -0.447962   -2.472786   -0.546736
H      -1.395951   -2.661259    0.966656
H      -4.694762   -2.256557   -0.094047
H      -4.417439   -0.549136    1.700607
H      -1.858231   -0.232918    2.133575
H      -2.456274    1.009508    1.045241
