21

O      -0.057937    1.362336    0.058827
C       0.044479   -0.032898    0.039668
C       0.896051   -0.752801    1.086841
C       0.520893   -2.168821    0.602033
C      -1.024713   -2.111265    0.683165
C      -1.347132   -0.757828    0.000147
C      -1.210580   -0.858623   -1.538583
C       0.320876   -0.748223   -1.345095
C       0.930675   -2.097508   -0.890533
H       0.814589    1.729353   -0.119881
H       1.966993   -0.534848    0.997198
H       0.573266   -0.539117    2.110739
H       0.969974   -2.999242    1.150306
H      -1.515101   -2.956794    0.189280
H      -1.347056   -2.107948    1.729982
H      -2.210149   -0.234478    0.413958
H      -1.596502   -1.760583   -2.025271
H      -1.619369    0.024031   -2.036711
H       0.904488   -0.222373   -2.104480
H       2.022598   -2.084744   -0.980486
H       0.562156   -2.944713   -1.478886
