15

C       0.023480    1.450728    0.174319
N       0.006256    0.011326   -0.033705
C      -1.171537   -0.691916   -0.078193
C      -1.181003   -2.015932   -0.349188
F      -2.333847   -2.671031   -0.373450
C       0.045611   -2.742596   -0.610343
N       0.050662   -4.004857   -0.869189
C       1.200818   -1.844788   -0.530628
N       1.189595   -0.572162   -0.270402
H       1.050462    1.737188    0.395227
H      -0.316862    1.988047   -0.718628
H      -0.620016    1.718036    1.017387
H      -2.081454   -0.140538    0.119583
H       1.009748   -4.325380   -1.020557
H       2.187623   -2.267290   -0.703711
