19

C      -0.002831    1.545895   -0.133934
C      -0.035780    0.033499    0.097211
N      -1.378103   -0.522375    0.048875
C      -2.111196   -0.960830    1.101104
N      -3.313969   -1.371741    0.740657
C      -3.354670   -1.184672   -0.610070
O      -4.425683   -1.489527   -1.370181
C      -5.540407   -2.036258   -0.676151
C      -2.173445   -0.657755   -1.078456
H       1.026978    1.911896   -0.080223
H      -0.405360    1.802420   -1.117662
H      -0.596529    2.066559    0.622728
H       0.582218   -0.479762   -0.647950
H       0.377916   -0.210981    1.080053
H      -1.720328   -0.963748    2.107951
H      -5.922600   -1.338795    0.076609
H      -6.302157   -2.220436   -1.435890
H      -5.277135   -2.973276   -0.174258
H      -1.836942   -0.388715   -2.063972
