18

C       0.293620    1.391656   -0.043185
O       1.184169    0.299734   -0.236908
C      -0.201458    0.001842    0.015202
C      -0.524835   -0.682910    1.280036
C      -1.471631   -1.617985    1.435985
C      -1.465260   -2.158957    2.823834
N      -0.176757   -2.841558    3.154089
C      -0.384036   -1.431306    3.543085
C       0.231943   -0.426420    2.575217
H       0.435276    1.956615    0.876598
H       0.081826    1.991715   -0.927743
H      -0.736525   -0.367975   -0.859757
H      -2.127241   -1.980757    0.652862
H      -2.374544   -2.502669    3.304948
H      -0.323836   -3.420076    3.980398
H      -0.456784   -1.187485    4.597379
H       1.307718   -0.580760    2.443662
H       0.091869    0.602884    2.930751
