21

C       0.048256    1.610170    0.031622
C       0.081130    0.089855    0.000431
C       0.761427   -0.657873   -1.150960
C       2.243661   -0.790287   -0.729725
C       3.414927   -0.893797   -1.645746
O       2.392850   -0.091871    0.513995
C       1.109960   -0.660785    0.896161
C       1.241890   -1.773181   -0.215811
C       1.103526   -3.259915   -0.235372
H       1.061406    2.012903   -0.039442
H      -0.542040    2.006626   -0.801784
H      -0.402716    1.976843    0.960947
H      -0.913696   -0.338010    0.169972
H       0.443687   -0.745904   -2.183819
H       3.718287    0.096930   -2.001214
H       4.270288   -1.352716   -1.139606
H       3.162347   -1.502905   -2.518885
H       0.992360   -0.781023    1.972261
H       0.081695   -3.574894    0.006489
H       1.340385   -3.655437   -1.229211
H       1.779904   -3.737435    0.482699
