14

O      -0.363755    0.465064   -0.598299
C       0.391454    0.818880    0.267651
C       1.366735    1.977082    0.116807
C       1.229942    2.800518   -1.161625
C       1.478992    4.236523   -0.669842
O       1.167914    4.244295    0.737253
C       1.156025    2.993896    1.250699
O       0.988700    2.759436    2.412134
H       0.426522    0.327030    1.260167
H       2.374522    1.563290    0.261353
H       1.929968    2.508597   -1.945638
H       0.217981    2.681434   -1.556624
H       2.524521    4.541466   -0.787807
H       0.841335    4.980858   -1.149898
