18

C      -0.053222    1.584806   -0.137069
C      -0.141814    0.071367   -0.245301
C      -0.118077   -0.776835    0.999120
C      -1.390578   -0.645417    0.195650
C       1.358830    2.069780   -0.037814
N       1.848214    2.633805    1.057721
N       3.133566    2.884482    0.704091
C       3.358453    2.471561   -0.557854
N       2.259809    1.949956   -1.062910
H      -0.524172    2.042263   -1.015679
H      -0.598891    1.931309    0.745990
H       0.370272   -0.334254   -1.112633
H       0.413784   -1.721468    0.972128
H      -0.066943   -0.266764    1.955667
H      -2.195643   -0.050929    0.616038
H      -1.728086   -1.499049   -0.381949
H       3.757673    3.327554    1.357586
H       4.312726    2.571960   -1.053303
