14

C      -0.152450    1.500087    0.012767
C      -0.015714   -0.007842    0.002518
O      -1.355362   -0.569251    0.012735
C      -1.427710   -1.889584    0.005313
O      -0.513788   -2.673218   -0.008713
C      -2.890872   -2.362908    0.017369
O      -3.845160   -1.637051    0.031374
C      -3.025279   -3.829389    0.010237
N      -3.202641   -4.971629    0.005472
H       0.841804    1.955966    0.005381
H      -0.699553    1.848985   -0.866873
H      -0.681596    1.838567    0.907336
H       0.501629   -0.375355   -0.888667
H       0.519451   -0.385738    0.878716
