17

C       0.390254    1.118683   -0.949483
C       0.017295    0.068911    0.076752
O       0.827409   -0.452638    0.808276
C      -1.450916   -0.275404    0.137172
O      -1.813050   -1.526395    0.712730
C      -2.180782   -0.359130    1.432818
C      -1.536289   -0.151679    2.785230
C      -2.065766   -1.148238    3.801194
O      -2.497861   -0.850271    4.883986
H       1.441922    1.384324   -0.841497
H       0.211567    0.733022   -1.960279
H      -0.235785    2.011318   -0.835780
H      -2.033542    0.005641   -0.740852
H      -3.247188   -0.128541    1.385729
H      -0.456945   -0.316121    2.689689
H      -1.722467    0.860486    3.156025
H      -2.013833   -2.207972    3.468110
