21

C       0.035782    1.430148    0.085491
O      -0.023973    0.020998    0.020817
C       0.749800   -0.526360   -1.036197
C       0.636931   -2.043408   -1.014277
C       1.095079   -2.644493    0.318946
O       0.183524   -2.403830    1.370863
C      -0.699237   -2.626812   -1.532106
O      -0.038796   -3.272012   -2.644560
C       1.236962   -2.724506   -2.268804
H       1.062850    1.783793    0.260832
H      -0.335423    1.887622   -0.843315
H      -0.598117    1.747015    0.916331
H       0.396446   -0.128280   -2.001424
H       1.806522   -0.226650   -0.923558
H       1.170716   -3.733194    0.218336
H       2.106763   -2.270366    0.558391
H      -0.008548   -1.456873    1.349515
H      -1.183530   -3.342477   -0.859872
H      -1.438896   -1.887995   -1.864931
H       1.634942   -2.040973   -3.031930
H       1.984891   -3.503625   -2.072083
