19

C       0.023459    1.560468   -0.157577
C       0.023071    0.055091   -0.000679
C       1.311984   -0.747808   -0.106754
C       0.590148   -0.617018    1.212250
C       1.183405    0.137578    2.405595
N       1.333999   -0.938447    3.373979
C       0.486996   -2.002282    3.089838
O       0.266921   -2.963183    3.791436
N      -0.063510   -1.739707    1.838571
H       0.924679    2.009979    0.271673
H      -0.009986    1.842158   -1.215384
H      -0.842577    2.014516    0.336216
H      -0.855570   -0.435063   -0.414856
H       1.280986   -1.706441   -0.615214
H       2.242594   -0.202897   -0.238091
H       2.141871    0.606113    2.165005
H       0.493989    0.920734    2.756276
H       1.511942   -0.744568    4.346227
H      -0.363251   -2.535401    1.297287
