20

C      -0.062574    1.533292   -0.109892
C       0.003737    0.031615    0.048256
N       1.308589   -0.613741   -0.148691
C       0.670625   -0.663123    1.191535
C       1.361075    0.108763    2.303294
O       2.121194   -0.753280    3.135347
C       1.326442   -1.712327    3.800754
C       0.372175   -2.421219    2.879078
C       0.099418   -1.945877    1.664146
H       0.839704    2.016130    0.271054
H      -0.158343    1.798296   -1.168360
H      -0.929128    1.944169    0.419158
H      -0.865558   -0.491063   -0.353193
H       1.204276   -1.510440   -0.618728
H       2.066405    0.830353    1.888970
H       0.607565    0.649136    2.902004
H       2.026272   -2.427390    4.248717
H       0.769045   -1.247464    4.637003
H      -0.082220   -3.338577    3.242670
H      -0.562807   -2.480579    0.985977
