20

C       0.042413    1.564347    0.064167
C      -0.076086    0.043173   -0.051177
C       0.785074   -0.537343   -1.180863
O       2.158570   -0.206759   -1.032872
C       0.621499   -2.052903   -1.327483
C       1.435110   -2.697210   -2.479312
N       2.256134   -3.741750   -1.840246
C       2.045758   -3.629885   -0.599294
O       1.173493   -2.693770   -0.136496
H       1.084756    1.859318    0.209346
H      -0.318105    2.058175   -0.845131
H      -0.544989    1.943215    0.905605
H       0.219064   -0.434945    0.891558
H      -1.121316   -0.242868   -0.225858
H       0.481032   -0.082227   -2.133319
H       2.467010   -0.664997   -0.241399
H      -0.441330   -2.315546   -1.369851
H       0.795339   -3.139578   -3.247699
H       2.093621   -1.966395   -2.960462
H       2.508367   -4.228361    0.178033
