17

C      -0.084524    1.484195   -0.003230
C       0.087689   -0.010714    0.030278
N      -0.738056   -0.842526    0.921513
C       0.739025   -0.776398    1.129234
C       1.435398   -1.938224    0.505461
C       1.242233   -1.956717   -0.812313
C       0.441031   -0.745322   -1.283615
C      -0.734727   -1.090180   -2.084708
N      -1.653667   -1.343385   -2.738059
H       0.782721    1.974946   -0.457991
H      -0.970664    1.762309   -0.584930
H      -0.205284    1.885594    1.007953
H      -1.197909   -0.228605    1.592985
H       1.123065   -0.292533    2.020971
H       1.987338   -2.678772    1.070960
H       1.575344   -2.718702   -1.505339
H       1.073283   -0.097231   -1.907889
