21

C      -0.021595    1.507082   -0.014004
C       0.018577   -0.001624   -0.003867
C      -0.568352   -0.775104    1.160317
C       0.919126   -0.811426    0.914719
C       1.471305   -2.004566    0.145245
C       0.538406   -2.148225   -1.081476
C      -0.000455   -0.740066   -1.322360
C      -0.849539   -0.387972   -2.463353
O       0.537344   -0.026400   -2.449531
H       0.738917    1.912431   -0.686403
H      -0.996878    1.881446   -0.347206
H       0.153401    1.904112    0.990445
H      -0.917213   -0.181747    1.999063
H      -1.164530   -1.663301    0.975682
H       1.566841   -0.308622    1.625043
H       2.493536   -1.783026   -0.181122
H       1.511866   -2.920112    0.744723
H       1.051006   -2.519157   -1.971394
H      -0.286200   -2.836266   -0.867519
H      -1.124524   -1.153150   -3.189424
H      -1.548936    0.444020   -2.389285
