15

C      -0.019401    1.511109    0.083132
C      -0.000794    0.016001   -0.034428
C      -0.021312   -0.678805   -1.194873
C      -0.000924   -2.147538   -1.249837
O      -0.019372   -2.774969   -2.302454
C       0.043734   -2.791884    0.067179
C       0.062075   -2.037963    1.180413
F       0.102137   -2.533001    2.411827
N       0.041308   -0.674625    1.163808
H       0.875708    1.879572    0.598425
H      -0.055893    1.968956   -0.905713
H      -0.892383    1.853462    0.651628
H      -0.054303   -0.149639   -2.139284
H       0.061639   -3.870779    0.135930
H       0.057443   -0.187046    2.045386
