20

C       0.109848    1.536035    0.015478
C       0.004238    0.033638    0.009856
C       0.112518   -0.734434    1.300353
C       1.522814   -0.671207    1.921929
C       1.586162   -1.404611    3.238855
C       2.394241   -0.931045    4.368534
O       0.976660   -0.751861    4.358216
N      -0.171817   -0.662714   -1.048277
O      -0.239565    0.148029   -2.195946
H       1.019084    1.863039   -0.500822
H      -0.729859    1.974079   -0.532045
H       0.122627    1.931946    1.032986
H      -0.602343   -0.328397    2.027493
H      -0.161591   -1.775950    1.108139
H       2.248041   -1.111810    1.226426
H       1.819195    0.371198    2.084250
H       1.369215   -2.473869    3.187981
H       2.771768   -1.640471    5.103761
H       2.981037   -0.019230    4.261708
H      -0.400680   -0.500000   -2.889478
