20

C       0.089634    1.529762    1.187759
N       0.147377    0.231512    0.549055
C      -1.017124   -0.124105   -0.269157
C      -1.082330   -1.620334   -0.142454
C      -0.251737   -2.049748    0.802253
C       0.502291   -0.891115    1.416581
C       2.014487   -1.194742    1.468754
C       2.832908   -0.853194    0.242092
O       2.487032   -1.722321    2.448622
H       1.032869    1.739731    1.702385
H      -0.056436    2.310216    0.433914
H      -0.726381    1.617210    1.929703
H      -1.952658    0.337344    0.103204
H      -0.894720    0.218806   -1.307008
H      -1.755881   -2.232084   -0.729715
H      -0.106057   -3.069239    1.135194
H       0.192106   -0.751383    2.468306
H       2.906303    0.233354    0.131834
H       3.830391   -1.283893    0.338016
H       2.337163   -1.218852   -0.662173
