17

C       0.123885    1.749247   -0.311356
C      -0.026673    0.244807   -0.106598
C      -1.445310   -0.215496   -0.356201
O      -1.770982   -1.361603   -0.548226
C       1.085265   -0.690882   -0.659398
C       2.041399   -0.379607    0.535418
O       2.306960   -1.771636    0.846571
C       0.893449   -1.741736    0.476319
C       0.618695   -0.374909    1.178526
H       1.139034    2.086213   -0.086371
H      -0.098591    2.033456   -1.346044
H      -0.561474    2.306682    0.337137
H      -2.212242    0.593981   -0.338527
H       1.360309   -0.884912   -1.695896
H       2.853223    0.340986    0.621214
H       0.325428   -2.666054    0.485641
H       0.363589   -0.204215    2.224705
