23

C      -0.060828    1.619988    0.057512
C      -0.167842    0.081749    0.009457
C      -1.563332   -0.345416   -0.097297
C      -2.710302   -0.693524   -0.198977
C       0.706569   -0.560857   -1.096836
C       0.297148   -0.120926   -2.503872
C       2.249007   -0.442098   -0.866519
C       2.392771   -1.954396   -1.184985
C       0.860605   -2.112556   -0.995613
H       0.987730    1.926146    0.124989
H      -0.499313    2.078474   -0.832181
H      -0.590097    2.012583    0.929672
H       0.218303   -0.301157    0.965134
H      -3.722691   -1.003458   -0.278561
H       0.436020    0.955503   -2.648657
H       0.902553   -0.631755   -3.259620
H      -0.753644   -0.359273   -2.696018
H       2.790407    0.261610   -1.504820
H       2.491910   -0.217431    0.177137
H       2.708446   -2.135518   -2.215593
H       3.037175   -2.539543   -0.525300
H       0.602083   -2.483542    0.000499
H       0.317685   -2.707905   -1.733871
