18

C       0.040080    1.469066   -0.053955
C      -0.040450   -0.029020   -0.010655
O       0.146938   -0.672436   -1.291010
C      -0.752747   -1.739323   -0.873806
C       0.065820   -2.858959   -0.240918
C       0.449944   -2.233715    1.086600
C       0.659471   -0.764121    1.159457
N      -0.647126   -1.397307    1.628915
C      -1.261667   -0.891874    0.336118
H       1.053684    1.786130   -0.323946
H      -0.654106    1.868925   -0.798017
H      -0.202706    1.894791    0.924477
H      -1.435893   -2.031487   -1.673296
H      -0.538951   -3.757189   -0.069555
H       0.921928   -3.122501   -0.867442
H       0.954145   -2.838577    1.834624
H       1.349583   -0.310182    1.864893
H      -2.292041   -0.551728    0.403589
