14

O      -0.214533    0.336238   -0.944003
C      -0.123274    1.300806   -0.239067
C      -1.212619    1.928035    0.637129
C      -0.827071    3.416496    0.787652
C       0.670557    3.452111    0.538260
O       1.386824    2.475936    1.282949
C       1.111447    2.187790   -0.104145
C       2.231381    2.061924   -0.995441
N       3.116157    1.950047   -1.729655
H      -2.189276    1.768566    0.178280
H      -1.212289    1.412779    1.602688
H      -1.330060    4.033624    0.036148
H      -1.072053    3.825795    1.771311
H       1.200034    4.382377    0.352029
