17

O       0.069992    1.367033   -0.094137
C      -0.002030   -0.025440   -0.029725
C       0.333573   -0.629642    1.347678
O      -0.710710    0.007268    2.165272
C      -1.905394   -0.031725    1.372818
C      -1.441261   -0.656569    0.017770
O      -2.238655   -0.380048   -1.094856
C      -1.078292   -2.094353    0.318824
C      -0.013248   -2.080056    1.131257
H      -0.145389    1.700049    0.786561
H       0.579785   -0.439811   -0.853841
H       1.292355   -0.383780    1.799657
H      -2.677402   -0.627320    1.873671
H      -2.280431    0.985231    1.204451
H      -3.111983   -0.760041   -0.952703
H      -1.645500   -2.950392   -0.027789
H       0.475747   -2.920082    1.606587
