16

N      -0.062765    1.265214   -0.021652
C      -0.090151    0.008496   -0.098863
O      -1.040529   -0.684658    0.570665
C      -1.042264   -2.081556    0.419117
C      -2.002212   -2.786442    1.382729
O      -2.690115   -3.439558    0.293991
C      -1.938649   -2.706612   -0.706316
C      -2.732391   -1.784523   -1.495176
C      -3.372360   -1.014828   -2.159868
H       0.715505    1.631326   -0.565849
H       0.603298   -0.631547   -0.661339
H      -0.021273   -2.476036    0.411147
H      -1.561545   -3.503442    2.082457
H      -2.647542   -2.084160    1.922037
H      -1.400504   -3.401058   -1.364025
H      -3.943311   -0.330757   -2.738373
