19

O      -0.105380    1.467635   -0.090563
C      -0.025312    0.053914   -0.182864
C      -1.393025   -0.510770    0.199653
C      -1.421040   -2.006823    0.194302
N      -1.437106   -2.821779   -1.047303
C      -2.510304   -2.983285   -0.032194
C      -1.970542   -3.874428    1.131685
N      -0.572621   -4.267281    0.828336
C      -0.869427   -2.914330    1.356643
H       0.747939    1.834187   -0.339523
H       0.237001   -0.271421   -1.201293
H       0.744173   -0.350611    0.494060
H      -1.656916   -0.132423    1.195489
H      -2.146136   -0.118407   -0.494764
H      -1.829060   -2.219719   -1.773804
H      -3.553067   -2.823025   -0.275617
H      -2.578795   -4.421569    1.839666
H      -0.255738   -4.819271    1.626910
H      -0.435552   -2.548818    2.278928
