23

C      -0.227496    1.537482   -0.038782
C       0.084189    0.031571    0.023045
C       0.793988   -0.477676   -1.197199
C       2.045218   -0.939995   -1.284827
C       2.411464   -1.403082   -2.672709
C       1.235883   -0.879521   -3.538707
C       0.868884   -1.750667   -4.737033
C       0.077550   -0.640017   -2.527350
O      -0.886783   -1.696767   -2.453187
H       0.692555    2.124522   -0.122704
H      -0.858648    1.779763   -0.899465
H      -0.756976    1.861213    0.862550
H       0.686269   -0.180169    0.913948
H      -0.857881   -0.520536    0.136451
H       2.735157   -1.002502   -0.448025
H       3.377718   -1.010411   -3.010619
H       2.501626   -2.498895   -2.716133
H       1.526208    0.114340   -3.901683
H       0.533554   -2.741949   -4.418189
H       0.056100   -1.304650   -5.318830
H       1.729224   -1.880000   -5.402093
H      -0.518142    0.232653   -2.815069
H      -0.455784   -2.446945   -2.028167
