16

O       0.009350    1.463932    0.125224
C       1.331040    1.870317   -0.099913
C       2.077459    0.889305   -0.982292
C       2.458402    1.047292    0.482641
N       2.165050   -0.197095    1.200022
C       0.758539   -0.639642    1.175649
C       1.773092   -1.232550    0.248410
C       1.231790   -0.380085   -0.937836
C       0.044668    0.055423    0.022461
H       1.426081    2.946739   -0.180180
H       2.697271    1.169338   -1.824006
H       3.371009    1.542072    0.794307
H       0.320747   -1.000708    2.099591
H       2.258866   -2.200333    0.241752
H       0.978009   -0.844102   -1.887768
H      -0.951427   -0.321384   -0.211739
