18

O       0.069662    1.348074    0.071100
C      -0.056199   -0.058181    0.213655
C      -1.411735   -0.581156   -0.274987
C      -1.500643   -2.089239   -0.182526
C      -1.865309   -2.756186    1.134471
O      -2.209100   -1.960133    2.226485
C      -2.832445   -2.803731   -0.017103
O      -4.001566   -2.061953    0.212047
H      -0.538807    1.759289    0.693048
H       0.751210   -0.490045   -0.388373
H       0.101280   -0.377509    1.253829
H      -2.200066   -0.125812    0.334154
H      -1.565937   -0.245342   -1.308154
H      -0.777460   -2.626821   -0.792261
H      -1.343616   -3.663979    1.423980
H      -3.132764   -1.706202    2.092175
H      -2.993752   -3.739735   -0.548497
H      -4.163032   -1.488461   -0.544138
