19

C      -0.296231    1.413370    0.618847
C      -0.091903   -0.054404    0.239985
C       0.629032   -0.230305   -1.102150
O       1.952355    0.347886   -0.960822
C       2.483639    0.935002   -2.062300
C       3.875602    1.436545   -1.764357
O       1.913975    1.031495   -3.117736
C       0.743311   -1.633424   -1.491692
C       0.816467   -2.794650   -1.790322
H       0.661979    1.931197    0.711601
H      -0.893089    1.938935   -0.134576
H      -0.819048    1.495183    1.575978
H       0.483258   -0.576935    1.011761
H      -1.055722   -0.568469    0.161487
H       0.110471    0.321689   -1.892702
H       3.874294    2.057476   -0.864911
H       4.536977    0.586267   -1.572256
H       4.246209    2.004305   -2.616861
H       0.883486   -3.817067   -2.070092
