18

C      -0.028313    1.527959   -0.134394
C       0.029381    0.075375   -0.052218
C       0.090786   -1.126632    0.014453
C       0.113417   -2.593987    0.084548
C       0.644907   -3.105235    1.439018
C      -0.611804   -3.188140    2.308325
O      -0.651612   -3.301235    3.503847
C      -1.818250   -3.087662    1.370583
N      -1.232376   -3.215828    0.036713
H       0.789097    1.922226   -0.748006
H      -0.969916    1.864393   -0.582155
H       0.049816    1.986416    0.857424
H       0.707438   -2.984501   -0.748416
H       1.043675   -4.119933    1.326980
H       1.410520   -2.477499    1.894366
H      -2.542505   -3.880697    1.579937
H      -2.309433   -2.119986    1.569353
H      -1.804429   -2.780579   -0.677238
