15

C      -0.033572   -1.166842   -0.085484
C       0.036725    0.022707    0.060648
C       0.083896    1.463397    0.253483
O       1.358152    1.951504   -0.152884
C       1.458439    3.368722   -0.063818
C       1.400572    3.851815    1.326894
C       1.325528    4.233372    2.463296
C       2.702121    3.777369   -0.717934
C       3.707033    4.138217   -1.264809
H      -0.086963   -2.219129   -0.218370
H      -0.712500    1.947224   -0.337189
H      -0.102693    1.709141    1.309420
H       0.613824    3.823911   -0.612764
H       1.272976    4.575644    3.467731
H       4.602055    4.448943   -1.745144
