21

C       0.943365   -0.644619   -1.376854
N       0.151638   -0.216980   -0.220549
C       0.668157   -0.641365    1.063947
C      -0.407491   -0.544893    2.201201
N      -0.658013   -1.986743    2.078047
C      -0.867091   -2.760447    3.278502
C       0.589271   -2.175763    1.323927
C       1.969455    0.030822    1.468820
O       2.431709    0.991629    0.907170
H       0.886900   -1.732433   -1.484757
H       0.504479   -0.207279   -2.277837
H       2.002890   -0.353748   -1.334915
H       0.122219    0.798871   -0.216259
H       0.022004   -0.249868    3.173631
H      -1.260460    0.100908    1.969612
H      -1.797223   -2.447332    3.764304
H      -0.964423   -3.821058    3.023370
H      -0.045332   -2.660013    4.015116
H       0.503824   -2.820961    0.444796
H       1.431889   -2.526962    1.944110
H       2.465400   -0.403651    2.368932
