29

C      -1.653327   -0.647266   -0.001636
C      -0.164754   -0.275229    0.003259
C       0.632140   -0.572660    1.305824
C       0.663567   -2.101411    1.531462
C       2.082163   -0.040995    1.133915
C       2.924026   -0.671300    0.014915
C      -0.057886    0.109912    2.540246
C       0.616320   -0.192058    3.891035
C      -0.244862    1.631026    2.401804
H      -2.233961   -0.055820    0.712485
H      -2.082228   -0.469708   -0.993194
H      -1.811160   -1.703816    0.236523
H       0.319740   -0.816934   -0.816936
H      -0.063663    0.787616   -0.247042
H       0.910884   -2.633319    0.607783
H       1.408731   -2.386915    2.279908
H      -0.305925   -2.476829    1.874677
H       2.044417    1.041782    0.965420
H       2.620962   -0.182100    2.077843
H       3.926661   -0.231504    0.009409
H       3.043482   -1.750573    0.149271
H       2.492903   -0.503935   -0.976480
H      -1.062139   -0.330056    2.596400
H       0.014165    0.222842    4.706430
H       0.720788   -1.263763    4.076255
H       1.610136    0.261546    3.965008
H      -0.794850    1.906680    1.498376
H      -0.808760    2.016558    3.257862
H       0.713833    2.159885    2.384665
