15

O      -0.297615    1.139620   -0.296568
C      -0.139389   -0.218436   -0.061057
C      -0.341005   -0.622726    1.372057
O      -0.729184    0.375932    2.251593
C      -1.346259   -1.070673    0.307452
N      -2.659837   -0.500357    0.354803
C      -3.222711    0.307662   -0.570657
O      -2.672786    0.764923   -1.560480
H      -1.008705    1.224036   -0.961426
H       0.629762   -0.712022   -0.652799
H       0.294114   -1.377182    1.825584
H      -0.679849    1.199710    1.740841
H      -1.314523   -2.110377   -0.011393
H      -3.217705   -0.712260    1.169342
H      -4.278184    0.533410   -0.331159
