20

C      -0.341614    1.396117    1.181034
C      -0.106004    0.240620    0.210002
O       0.760272   -0.727509    0.815807
C       2.082152   -0.622580    0.583739
N       2.891589   -1.385383    1.180090
C      -1.395883   -0.467367   -0.190410
O      -2.279051    0.393098   -0.864571
C      -1.375368   -1.876130   -0.693530
C      -1.975662   -1.561098    0.665405
H       0.602139    1.890039    1.429403
H      -1.003304    2.141704    0.731336
H      -0.791241    1.028910    2.108389
H       0.362012    0.621835   -0.708929
H       2.335909    0.152913   -0.152853
H       3.841982   -1.188673    0.873570
H      -2.784125    0.880570   -0.205251
H      -2.059190   -2.098092   -1.504211
H      -0.430881   -2.405361   -0.714498
H      -1.421717   -1.872085    1.543039
H      -3.056020   -1.593963    0.756103
