15

C       0.077820    1.386955   -0.062594
N      -0.091072   -0.047468   -0.084451
C      -1.262874   -0.675837    0.019367
C      -2.485231   -0.073158    0.160050
N      -3.614120   -0.843782    0.254495
N      -3.730696   -2.036297    0.234672
O      -2.299888   -2.849532    0.067764
C      -1.174069   -2.169335   -0.027942
N      -0.002958   -2.670400   -0.159522
H       1.137194    1.620958   -0.172061
H      -0.470279    1.865136   -0.883976
H      -0.277362    1.816575    0.882503
H       0.697150   -0.678528   -0.178642
H      -2.644013    0.992986    0.204766
H      -0.042518   -3.688500   -0.181975
