15

N       0.010032    1.242892    0.625318
C       0.034294    0.146933   -0.015190
N      -1.144824   -0.282283   -0.628341
C      -1.594662   -1.529335   -1.054878
N      -1.005669   -2.631979   -1.257526
C       0.419038   -2.791468   -1.054650
C       1.265966   -1.537806   -1.225879
O       1.131476   -0.628112   -0.124384
H       0.943771    1.467412    0.961970
H      -1.866151    0.414790   -0.512394
H      -2.666478   -1.486407   -1.256946
H       0.604724   -3.206431   -0.054169
H       0.776040   -3.544699   -1.768905
H       2.327388   -1.797683   -1.236014
H       1.026195   -1.026033   -2.165454
