19

C       0.168723    1.286262    0.213596
O      -0.169947   -0.049500   -0.131726
C       0.517737   -0.528785   -1.217794
C       1.913982   -1.042539   -1.140926
C       0.786104   -2.028011   -1.498857
C       0.517783   -3.271158   -0.701415
C       0.384496   -1.775623   -2.923266
O       0.151790   -2.500046   -3.849997
C       0.138999   -0.258825   -2.685075
H       1.237431    1.379015    0.449809
H      -0.075420    1.986322   -0.597100
H      -0.420726    1.543233    1.095838
H       2.671149   -0.762612   -1.868577
H       2.290482   -1.204629   -0.135098
H       0.579101   -3.061898    0.370840
H      -0.480491   -3.664450   -0.915499
H       1.243950   -4.056074   -0.936618
H      -0.924151   -0.035020   -2.816221
H       0.740452    0.458390   -3.251310
