22

C       0.024382    1.447640   -0.380770
C      -0.074080   -0.018641   -0.007154
C       1.124892   -0.869500   -0.207835
N       0.686815   -0.507708    1.155528
C      -1.464929   -0.622810   -0.172354
O      -1.752993   -0.497586   -1.554167
C      -1.675876   -2.026918    0.473790
C      -2.381438   -1.347334    1.673988
C      -2.522335   -0.053423    0.831114
H       1.058731    1.798897   -0.306902
H      -0.321689    1.602321   -1.405513
H      -0.590172    2.070614    0.278419
H       1.021938   -1.920847   -0.458469
H       2.016965   -0.396765   -0.609797
H       1.272301    0.239294    1.520983
H      -2.653871   -0.803507   -1.697630
H      -2.366116   -2.617299   -0.138358
H      -0.792340   -2.628411    0.690052
H      -3.304975   -1.805686    2.033811
H      -1.695946   -1.214475    2.511845
H      -2.299464    0.899429    1.317425
H      -3.504339    0.029407    0.352288
