15

O       0.027306    1.407843   -0.023985
C      -0.040465    0.031586   -0.020503
C       0.288661   -0.759133   -1.342053
C      -0.854195   -1.713929   -1.004611
C      -0.834101   -2.046939    0.470660
O       0.376318   -1.897412    1.221125
C       0.792307   -0.616099    1.074749
O       1.695781   -0.110285    1.680105
C      -1.397362   -0.736569    0.046231
H       0.741857    1.646464    0.586280
H       0.026766   -0.118661   -2.186546
H       1.298167   -1.161890   -1.475355
H      -1.397246   -2.334441   -1.706976
H      -1.441856   -2.854826    0.852740
H      -2.383148   -0.340862    0.248612
