19

C      -0.000244    1.511263   -0.107824
C       0.112160    0.007417   -0.032977
C       1.444843   -0.720190   -0.127082
O       2.596758    0.069642    0.075913
C       2.769011    0.116921    1.477402
O       1.469914    0.078976    2.053229
C       0.691846   -0.718199    1.166937
C       0.047260   -1.894138    1.849365
O       0.990354   -2.667340    2.568360
H      -0.025368    1.844467   -1.150190
H      -0.917731    1.855734    0.379796
H       0.845166    1.995944    0.381926
H      -0.703083   -0.536599   -0.508184
H       1.589264   -1.593931   -0.754173
H       3.359143   -0.748563    1.822455
H       3.256784    1.056704    1.750101
H      -0.761141   -1.537712    2.507915
H      -0.405712   -2.552056    1.100913
H       1.410993   -2.060826    3.188605
