17

O      -0.039916    1.355016   -0.080113
C      -0.046788   -0.031552    0.020710
C      -0.482283   -0.748852    1.283271
C      -1.583116   -0.033319    2.090629
C      -2.486831   -0.028364    0.806901
C      -1.359489   -0.749987    0.046700
O      -1.380159   -2.065820   -0.428705
C      -0.934684   -2.863316    0.672918
O      -0.038592   -2.065564    1.454812
H       0.721532    1.685703    0.409307
H       0.725030   -0.569739   -0.527185
H      -1.979624   -0.669866    2.883556
H      -1.311491    0.936726    2.513356
H      -3.371521   -0.658633    0.911758
H      -2.778454    0.943682    0.405492
H      -1.793872   -3.179611    1.285386
H      -0.394718   -3.732053    0.288133
