20

N       0.269981    0.898227   -0.842032
C       0.016845    0.069403    0.212702
O       0.827127   -0.112073    1.102864
C      -1.331928   -0.648204    0.170948
C      -1.122010   -2.102341   -0.304775
C      -2.455540   -2.855094   -0.402562
C      -3.336424   -2.606422    0.793724
C      -3.116213   -1.629894    1.672665
C      -1.989170   -0.638544    1.561382
H       1.154629    1.378244   -0.872828
H      -0.408711    1.082124   -1.558815
H      -1.997046   -0.145129   -0.543915
H      -0.605839   -2.116145   -1.271092
H      -0.463227   -2.600170    0.415495
H      -2.989587   -2.568230   -1.321449
H      -2.262918   -3.930690   -0.504744
H      -4.185214   -3.272844    0.927736
H      -3.777346   -1.516510    2.528784
H      -1.212597   -0.845405    2.308863
H      -2.359120    0.369162    1.791369
