15

C       0.009940    1.542492   -0.121931
C      -0.029076    0.046209    0.041138
O       1.230186   -0.653893   -0.058107
C       0.566565   -0.641465    1.185230
C       1.155420   -0.122224    2.494202
O       0.632947   -1.275698    3.191165
C       0.147556   -1.880198    1.970948
H       0.837964    1.977087    0.444495
H       0.137422    1.812245   -1.175189
H      -0.926519    1.989537    0.228924
H      -0.845194   -0.461482   -0.476956
H       2.252156   -0.083764    2.509730
H       0.749328    0.818207    2.886399
H      -0.925053   -2.103994    2.016593
H       0.702140   -2.788794    1.703214
