19

C       0.992033   -1.069264   -0.526937
C       0.027829    0.001857   -0.907286
N       0.682989    0.012508    0.400236
C      -0.087584   -0.287439    1.608167
C      -0.882422    0.921177    2.078788
C      -2.121759    0.607857    2.454996
C      -2.383552   -0.847637    2.233250
N      -2.345057   -1.210490    0.790027
C      -1.142486   -1.410847    1.640600
H       0.578915   -2.056655   -0.330315
H       2.004325   -1.074750   -0.923304
H       0.343753    0.797956   -1.577017
H      -1.022713   -0.262146   -0.949936
H       0.666705   -0.542883    2.368722
H      -0.446462    1.912951    2.062435
H      -2.868699    1.296873    2.830527
H      -3.026804   -1.418734    2.893868
H      -2.791142   -2.119200    0.671195
H      -0.828032   -2.426864    1.852243
