15

O       0.008918   -0.079739    0.072885
C      -0.028986    1.135877    0.024012
N      -1.172874    1.873263   -0.022395
C      -1.099915    3.293940   -0.078855
C      -0.074165    4.083514    0.706390
C       0.009894    3.990296   -0.811080
N       1.335280    3.269428   -0.759241
C       1.251544    3.315225    0.726827
C       1.194025    1.994768    0.029794
H      -2.057174    1.390166   -0.019132
H      -2.067999    3.774788   -0.162761
H      -0.318845    4.912901    1.355936
H      -0.134378    4.718856   -1.598463
H       2.104850    3.603406    1.330775
H       2.111919    1.417702    0.007480
