17

C       0.143084    1.356766    0.005216
N      -0.075127   -0.078417    0.001823
C      -1.265790   -0.684660    0.010903
N      -2.397686    0.025897    0.025951
H      -3.276136   -0.468328    0.033399
H      -2.398279    1.030507    0.032016
O      -1.247369   -1.963041    0.004098
C      -2.512316   -2.779207    0.012923
C      -2.171315   -4.332136    0.000286
O      -0.976185   -4.622305   -0.014250
O      -3.241958   -4.952700    0.008438
H       1.217201    1.540527   -0.003848
H      -0.287670    1.831894   -0.883752
H      -0.271120    1.824899    0.905680
H       0.709810   -0.712485   -0.010512
H      -3.052609   -2.512972    0.925231
H      -3.071985   -2.502631   -0.884506
