18

C       0.028331    1.518109   -0.147271
C      -0.016477    0.002300    0.103959
C      -1.418011   -0.552984    0.026585
C      -1.823706   -1.400512   -1.000261
C      -3.142690   -1.858964   -1.012641
C      -4.015578   -1.467341   -0.013327
C      -3.508825   -0.613488    0.973108
O      -4.331132   -0.211354    1.966222
N      -2.261107   -0.168004    1.001287
H       1.047547    1.901099   -0.039151
H      -0.320646    1.760303   -1.156339
H      -0.615066    2.039022    0.566696
H       0.622856   -0.517820   -0.616881
H       0.384279   -0.207164    1.102537
H      -1.123477   -1.696408   -1.772475
H      -3.483299   -2.521572   -1.801920
H      -5.046896   -1.793495    0.026500
H      -3.796201    0.361953    2.532939
