18

C      -0.052441    1.516276   -0.051657
C      -0.010363    0.009372   -0.016672
C      -1.319214   -0.754930    0.296950
C      -0.494631   -1.653334    1.248046
N       0.697939   -0.685442    1.167794
C       1.365845   -1.626636    0.151167
C       0.913622   -0.722905   -1.019486
C       0.332741   -2.697851    0.499380
O       0.276623   -3.886688    0.375261
H       0.958711    1.935029   -0.069662
H      -0.583386    1.865444   -0.945701
H      -0.567891    1.913415    0.828510
H      -2.016324   -0.129258    0.859965
H      -1.859463   -1.232911   -0.524180
H      -0.912242   -1.926642    2.218411
H       2.422687   -1.878777    0.252229
H       0.466825   -1.199557   -1.895707
H       1.730180   -0.075510   -1.348924
