15

O       0.143815    1.400466   -0.031999
C       0.108362   -0.005721    0.039436
C      -1.335701   -0.512782    0.031078
O      -2.025343    0.040512   -1.094359
C      -1.440217   -2.040229    0.058815
C      -2.884497   -2.495353    0.004696
O      -3.325957   -3.267680   -0.804504
H      -0.517726    1.642519   -0.693446
H       0.655345   -0.471129   -0.801406
H       0.614544   -0.303513    0.964444
H      -1.853475   -0.087525    0.899347
H      -1.731820   -0.426048   -1.886681
H      -0.897831   -2.495220   -0.777901
H      -0.995903   -2.411950    0.992801
H      -3.533971   -2.050779    0.793245
