16

C       0.054845    1.511394   -0.114575
C      -0.039000    0.020400   -0.051476
O       0.428655   -0.720362   -1.184603
C      -0.239599   -1.868326   -0.582327
C       0.679305   -2.158104    0.618041
C       0.334217   -0.812072    1.277170
O      -1.088374   -0.982162    1.555481
C      -1.265867   -0.883089    0.143692
H       1.101649    1.832160   -0.135180
H      -0.439081    1.894097   -1.012280
H      -0.423224    1.951259    0.765627
H      -0.510610   -2.647236   -1.291270
H       0.373988   -2.993156    1.251479
H       1.716079   -2.266167    0.294588
H       0.907495   -0.426054    2.117926
H      -2.284736   -0.740671   -0.212129
