19

C       0.062193    1.484151    0.050188
C       0.047126    0.028338    0.025129
C      -0.001874   -1.175417   -0.010756
C       0.027871   -2.639610   -0.036518
O      -1.296811   -3.154349   -0.041543
C       0.760630   -3.114807   -1.315169
O       0.575818   -4.515652   -1.495180
C       0.750947   -3.149726    1.236287
O       2.077742   -2.674732    1.345972
H       1.008256    1.878232   -0.336568
H      -0.744603    1.892786   -0.567613
H      -0.069480    1.868556    1.067303
H      -1.219973   -4.021203   -0.466787
H       0.307908   -2.630060   -2.183430
H       1.819297   -2.842599   -1.259546
H       1.231686   -4.978453   -0.964370
H       0.132777   -2.884310    2.104066
H       0.810234   -4.243090    1.194846
H       2.026793   -1.710882    1.351511
