15

O      -0.075651    1.375091   -0.161962
C      -0.047336   -0.025484    0.033957
C      -1.443107   -0.532876    0.103963
C      -2.622460    0.120634    0.105677
C      -3.626553   -1.006943    0.072753
O      -3.031130   -2.004145    0.954371
C      -1.877714   -1.984322    0.072437
C      -2.968275   -1.873058   -1.090800
O      -3.204519   -2.303786   -2.164011
H       0.825696    1.705270   -0.106314
H       0.484619   -0.541969   -0.784773
H       0.484886   -0.293034    0.963353
H      -2.816607    1.179252    0.038008
H      -4.691571   -0.842610    0.211697
H      -1.176820   -2.805544    0.204022
