15

N      -0.068091    0.919640   -0.785173
C       0.004531   -0.102661    0.109619
O       1.007038   -0.442092    0.701203
C      -1.313128   -0.891637    0.292707
O      -2.429049   -0.149797   -0.179652
C      -3.164961   -0.990468   -1.071210
C      -2.087684   -1.940887   -1.581836
O      -1.269133   -2.107948   -0.430309
H       0.733866    1.522454   -0.877254
H      -0.977423    1.261017   -1.048835
H      -1.412977   -1.138045    1.356910
H      -3.953587   -1.528746   -0.529137
H      -3.617779   -0.364912   -1.843987
H      -2.460758   -2.922817   -1.880029
H      -1.521769   -1.496435   -2.412745
