13

N      -0.104902    1.339523    0.010748
C       0.003576    0.074185    0.003243
N       1.175449   -0.680268   -0.007188
C       1.274308   -2.064244   -0.015363
O       2.329082   -2.650390   -0.024299
N       0.042155   -2.698483   -0.012372
C      -1.209316   -2.089574   -0.002273
O      -2.243694   -2.710680   -0.000196
N      -1.142004   -0.711134    0.005102
H       0.799208    1.805236    0.008427
H       2.059078   -0.194840   -0.009234
H       0.052020   -3.707445   -0.018012
H      -2.020639   -0.215103    0.012476
