23

C       0.227325    1.445567   -0.261045
C       0.092877   -0.019200    0.068745
O       1.297811   -0.768767    0.265560
C       0.397675   -0.628589    1.375061
C       0.901149    0.108242    2.594175
C       1.872283   -0.733221    3.417863
C       3.284527   -1.046631    2.844045
C       3.862896   -0.859482    4.272160
C       2.567413   -0.092072    4.652251
H       0.961303    1.942954    0.375498
H       0.545433    1.568010   -1.301812
H      -0.737302    1.952026   -0.145548
H      -0.642787   -0.544362   -0.545673
H      -0.134947   -1.554209    1.611861
H       1.393112    1.040121    2.296682
H       0.036948    0.384967    3.214983
H       1.382284   -1.668139    3.718191
H       3.431772   -2.008011    2.347480
H       3.615447   -0.256722    2.163266
H       3.940579   -1.810432    4.807452
H       4.813256   -0.329750    4.371835
H       2.687949    0.988745    4.519868
H       2.129372   -0.272158    5.637574
