18

C       0.025862    1.500745    0.004602
C      -0.003171    0.006756   -0.000819
C      -1.083605   -0.778964    0.106749
C      -0.741835   -2.216886    0.057642
C      -1.494910   -3.308140    0.742512
N      -1.514643   -3.224913   -0.716610
C       0.769122   -2.266253   -0.069795
O       1.446095   -3.259411   -0.094774
C       1.262267   -0.812719   -0.127520
H       0.636942    1.882730    0.832329
H       0.475936    1.890137   -0.917604
H      -0.978586    1.922299    0.099283
H      -2.102576   -0.420509    0.214185
H      -0.926769   -4.146451    1.136358
H      -2.380772   -3.029930    1.308426
H      -2.382452   -2.792078   -1.029401
H       1.805168   -0.628350   -1.064100
H       1.981005   -0.627681    0.681308
