19

C      -0.024561    1.519872   -0.037680
C       0.040708    0.010549   -0.021705
C      -0.607145   -0.773695    1.108290
C       0.891551   -0.781087    0.939053
O       1.493970   -1.870670    0.276233
C       1.196603   -1.815968   -1.095114
C      -0.215505   -2.122767   -1.563818
C       0.245395   -0.691657   -1.370172
O       0.436131    0.121348   -2.487570
H       0.802388    1.947061   -0.610623
H      -0.960084    1.874294   -0.486738
H       0.018652    1.916468    0.981046
H      -0.997418   -0.187777    1.935229
H      -1.167514   -1.678739    0.908426
H       1.536896   -0.340237    1.691958
H       2.037474   -2.058575   -1.735406
H      -0.291149   -2.445321   -2.597717
H      -0.927473   -2.581911   -0.889612
H      -0.430357    0.339366   -2.848524
