19

O       0.142505    1.373306    0.220192
C       0.089111   -0.031841    0.045295
C      -1.354416   -0.541437   -0.005843
C      -1.472181   -2.077875   -0.025011
C      -2.889995   -2.469557    0.044229
N      -4.002434   -2.772784    0.113713
N      -0.882643   -2.639864   -1.244066
C       0.483361   -3.155203   -1.124436
C      -0.667753   -4.086471   -1.248197
H      -0.209130    1.785257   -0.575597
H       0.640190   -0.345243   -0.852020
H       0.606821   -0.456721    0.913462
H      -1.888391   -0.155930    0.868528
H      -1.856574   -0.151038   -0.898290
H      -0.989717   -2.484208    0.883916
H       1.131412   -2.956342   -1.972495
H       0.970891   -3.092117   -0.153253
H      -0.954199   -4.648194   -0.361251
H      -0.881384   -4.583327   -2.189051
