17

O      -0.116893   -0.007097    0.260766
C      -0.073883    1.171286    0.082221
C      -1.163532    2.270190   -0.219308
C       0.010518    3.064689   -0.877662
O       0.475811    4.401406   -0.667253
C       1.691479    4.128263    0.078136
C       1.169876    3.204236    1.187855
C       1.010313    2.247347   -0.060317
C       2.356478    2.843326   -0.559062
H      -1.980021    1.953702   -0.870263
H      -1.572240    2.711099    0.691436
H       0.036764    2.843132   -1.950233
H       2.233349    5.056210    0.254028
H       1.934627    2.826568    1.868197
H       0.284567    3.537389    1.729726
H       2.530010    2.831680   -1.636706
H       3.248564    2.540093   -0.010064
