18

C       0.795938    0.100019    1.268095
C       0.002621    0.234183   -0.014776
O       0.281969    1.037721   -0.873932
C      -1.230579   -0.669436   -0.154461
C      -1.747933   -0.846213   -1.565358
C      -1.932352   -2.138865   -1.828551
C      -1.491687   -2.968325   -0.669977
C      -0.041830   -2.851907   -0.340184
N      -1.030492   -2.038004    0.388147
H       1.538902    0.896558    1.323974
H       0.130281    0.133719    2.136676
H       1.294786   -0.874022    1.300105
H      -1.997348   -0.183853    0.474976
H      -1.901469   -0.013088   -2.237187
H      -2.311189   -2.561209   -2.750766
H      -2.063418   -3.838119   -0.358150
H       0.445852   -3.603271    0.275070
H       0.591148   -2.375707   -1.085827
