21

O       0.326661    0.024372    1.733416
C      -0.143632    0.381693    0.446853
C      -1.362072   -0.466103   -0.026533
C      -1.889943    0.127241   -1.308781
C      -1.573386   -0.196725   -2.561573
C      -0.645749   -1.304526   -2.995486
C      -1.013194   -2.691010   -2.442661
C      -0.906067   -2.849602   -0.949246
C      -1.038980   -1.939268    0.017355
H       0.743714   -0.839795    1.661259
H      -0.444469    1.431874    0.516305
H       0.651902    0.313563   -0.309571
H      -2.126760   -0.310065    0.748141
H      -2.565250    0.968458   -1.161680
H      -2.027816    0.385531   -3.360428
H      -0.636112   -1.357072   -4.089189
H       0.384804   -1.072753   -2.695061
H      -2.032606   -2.948540   -2.764238
H      -0.361878   -3.439205   -2.912169
H      -0.700215   -3.869179   -0.625401
H      -0.919569   -2.302587    1.037717
