16

C      -0.122104    1.561608   -0.128682
C      -0.017982    0.052854   -0.027849
O      -1.251157   -0.575449    0.219319
C       0.668992   -0.685180   -1.194586
O       2.001450   -0.177601   -1.281693
C       1.736717   -1.211375   -0.336940
C       1.138541   -0.550923    0.920946
C       1.985793    0.346913    1.682970
N       2.638243    1.083766    2.290365
H       0.838405    1.993576   -0.415289
H      -0.874922    1.831434   -0.875531
H      -0.411827    1.997184    0.834781
H      -1.720314   -0.073630    0.894853
H       0.204471   -1.085144   -2.087640
H       2.326843   -2.117462   -0.394172
H       0.670942   -1.290057    1.575582
