20

C      -0.026468    1.680793    0.206459
C      -0.066795    0.169095    0.082370
C      -1.379713   -0.421089   -0.406400
C      -1.698186   -0.037412   -1.869245
C      -2.923634   -0.665713   -2.355796
N      -3.894638   -1.173616   -2.723070
C       1.213417   -0.549427   -0.324877
C       0.699179   -0.644738    1.092441
O       1.350066    0.045713    2.117344
H       0.885602    2.001393    0.711773
H      -0.064298    2.168667   -0.773577
H      -0.876262    2.044052    0.795871
H      -1.348290   -1.513346   -0.334578
H      -2.202435   -0.087581    0.236953
H      -1.804689    1.047833   -1.969046
H      -0.869194   -0.333906   -2.522197
H       1.149352   -1.427087   -0.960940
H       2.094480    0.063770   -0.483679
H       0.253779   -1.591887    1.399347
H       2.191080   -0.392145    2.284101
