17

C       0.035574    1.338077   -0.196174
O      -0.025515   -0.031795    0.182755
C      -1.289681   -0.557533    0.109979
C      -2.385412   -0.340478    1.173308
C      -2.665581   -1.859655    1.077532
O      -3.358474   -2.602374    1.712426
C      -1.624710   -2.079694    0.018666
C      -1.867513   -1.099420   -1.138042
O      -3.140051   -0.716883   -1.559300
H       1.081901    1.638848   -0.118537
H      -0.310600    1.482352   -1.228269
H      -0.570251    1.966338    0.470505
H      -1.962942   -0.100322    2.153375
H      -3.204550    0.338298    0.931205
H      -0.992356   -2.949518   -0.112455
H      -1.133662   -1.236892   -1.933899
H      -3.572900   -1.481032   -1.955771
