18

O      -0.102991    0.029512   -0.487433
C       0.014968    1.224766   -0.333087
N       1.135114    1.854085    0.158431
C       2.278008    1.110975    0.473547
C       3.388551    1.643018    0.987260
C       3.535211    3.093934    1.349026
C       2.379194    3.950239    0.854423
C       2.102170    4.082224   -0.626341
C       1.165449    3.290526    0.258403
H      -0.787549    1.949538   -0.566468
H       2.165894    0.058966    0.247595
H       4.225705    0.983939    1.188529
H       3.597893    3.185436    2.442783
H       4.488233    3.489502    0.970036
H       2.180470    4.832913    1.454192
H       1.760773    5.035171   -1.014761
H       2.731050    3.512337   -1.302419
H       0.190582    3.710322    0.480039
