20

C      -0.084461    1.542809    0.020421
C       0.029411    0.021430    0.036572
N       0.820755   -0.445445   -1.107653
C       0.748226   -1.895690   -1.295734
C       1.251313   -2.627306   -0.049421
O       1.925217   -3.625284   -0.129735
C       0.787518   -2.042018    1.277762
C       0.771220   -0.500757    1.284625
O       2.085280    0.024515    1.330347
H       0.903692    2.002185    0.097973
H      -0.564686    1.891436   -0.900392
H      -0.689648    1.888188    0.863522
H      -0.987654   -0.415038    0.030968
H       0.544694    0.034240   -1.956697
H      -0.285582   -2.251156   -1.481158
H       1.364460   -2.201527   -2.143863
H      -0.236093   -2.410817    1.442593
H       1.417425   -2.433534    2.079126
H       0.265548   -0.151485    2.191257
H       2.401349   -0.000802    0.414488
