18

C       0.296256    1.521797   -0.157479
C       0.106588    0.015668    0.005958
N       0.722944   -0.713681   -1.115619
C       1.134804   -2.047910   -0.677667
C       2.274788   -2.544585   -1.465829
N       3.149106   -2.977384   -2.084387
C       1.443044   -1.854406    0.805458
N       2.265687   -0.665164    1.073457
C       0.798350   -0.589891    1.217959
H       1.362752    1.756514   -0.180233
H      -0.156455    1.872196   -1.090502
H      -0.176642    2.064962    0.667618
H      -0.970261   -0.209318    0.110930
H       0.153168   -0.730249   -1.950757
H       0.340109   -2.812029   -0.746865
H       1.515700   -2.729490    1.440286
H       2.693720   -0.760361    1.991058
H       0.357974   -0.459502    2.200449
