20

C       0.105587    1.494831    0.124354
N       0.047805    0.043307    0.087469
C       0.217060   -0.624141    1.362966
C      -0.145196   -0.584876   -1.119087
O      -0.320421    0.023798   -2.157572
C      -0.159558   -2.122664   -1.102999
C      -1.544707   -2.756461   -0.795188
C      -1.506808   -3.163400   -2.282517
O      -0.162973   -2.661785   -2.428142
H       1.073103    1.833689    0.516779
H      -0.026657    1.866502   -0.890327
H      -0.685069    1.898754    0.769521
H      -0.464839   -0.190049    2.105227
H      -0.008825   -1.686808    1.293228
H       1.241221   -0.511117    1.745749
H       0.685406   -2.516632   -0.526473
H      -1.513056   -3.588999   -0.090492
H      -2.333577   -2.061383   -0.503997
H      -1.568512   -4.236527   -2.495199
H      -2.211262   -2.624505   -2.926613
