19

C      -0.165163    1.524609    0.076850
C       0.029536    0.008018    0.039449
C       0.768375   -0.452002   -1.223170
O       2.070951    0.122427   -1.199894
C       2.765815    0.107193   -2.369971
N       3.916452    0.600542   -2.419048
C       4.610039    0.566829   -3.690220
C       0.846238   -1.925501   -1.292462
N       0.897967   -3.078019   -1.352580
H       0.796408    2.041832    0.046425
H      -0.765976    1.869115   -0.772047
H      -0.684042    1.817720    0.993300
H       0.603953   -0.330892    0.907438
H      -0.934690   -0.510065    0.069538
H       0.222934   -0.106117   -2.113420
H       2.230683   -0.356319   -3.212188
H       4.868294    1.588005   -3.991330
H       5.552277    0.020200   -3.575259
H       4.033494    0.098299   -4.503743
