19

O       0.021641    1.479301    0.079829
C      -0.007387    0.084759    0.031469
C       0.838708   -0.684115    1.095819
C       0.481062   -2.184458    0.789830
C      -0.471720   -1.902617   -0.360404
C      -1.443761   -2.386001   -1.460532
C      -1.433063   -0.828641   -1.585691
C      -1.352412   -0.646608   -0.039392
C       0.091377   -0.756044   -1.264839
H       0.941653    1.764514    0.078754
H       1.910125   -0.482858    0.977011
H       0.557063   -0.383191    2.109566
H       1.355196   -2.774399    0.498277
H       0.005369   -2.681700    1.640334
H      -1.010583   -2.950916   -2.292430
H      -2.379100   -2.848409   -1.128254
H      -1.989650   -0.215539   -2.293579
H      -2.180204   -0.632899    0.672235
H       0.922321   -0.873132   -1.964374
