17

C       0.069487    1.559410   -0.080561
C      -0.034610    0.041146    0.062607
N       0.696116   -0.465767    1.219473
C       2.074309   -0.657511    1.237947
N       2.838687   -0.417567    0.263789
O       2.435209   -1.140803    2.462964
C       1.274185   -1.285955    3.284706
C       0.112671   -0.819979    2.414574
O      -1.059122   -0.773407    2.698626
H       1.111809    1.860841   -0.207188
H      -0.493932    1.886761   -0.959363
H      -0.344413    2.063556    0.797523
H      -1.072301   -0.270103    0.205055
H       0.370331   -0.456787   -0.821820
H       3.803095   -0.641091    0.499831
H       1.150453   -2.332095    3.580982
H       1.369119   -0.668570    4.183156
