18

C      -0.087009    1.560076    0.077541
C      -0.060922    0.032769   -0.026800
C       0.730999   -0.503528   -1.236124
C       2.220823   -0.193415   -1.218968
C       2.977803   -1.288007   -1.331633
C       2.113421   -2.504884   -1.392161
O       1.311136   -2.690857   -0.199270
C       0.722370   -2.031447   -1.323852
H       0.915082    1.975143    0.225775
H      -0.504438    2.015295   -0.827954
H      -0.702330    1.881774    0.923419
H       0.365443   -0.404859    0.881699
H      -1.090132   -0.340948   -0.098868
H       0.279105   -0.092866   -2.152100
H       2.600060    0.814594   -1.095043
H       4.060296   -1.319077   -1.345534
H       2.422343   -3.422196   -1.883809
H      -0.114039   -2.553172   -1.782488
