20

O       0.179065    1.961421    0.574924
C      -0.084583    0.709348   -0.040904
C       0.585088    0.675477   -1.418198
O       0.175741   -0.518014   -2.083716
C       0.507434   -0.628590   -3.384378
N       0.245361   -1.689675   -4.014564
C       0.303340   -0.484833    0.814794
C       1.491783   -0.439820    1.745496
C       0.087712   -0.463065    2.301575
H       1.129899    2.030067    0.716658
H      -1.169588    0.692919   -0.197728
H       0.282721    1.562488   -1.988275
H       1.679553    0.686080   -1.303244
H       0.993545    0.269847   -3.790269
H       0.546235   -1.601444   -4.982884
H       0.133432   -1.429426    0.308664
H       2.105196   -1.329620    1.829994
H       2.051806    0.484293    1.855479
H      -0.281135    0.461989    2.730184
H      -0.265373   -1.365663    2.787083
