20

C       0.534428    1.482455   -0.418771
C       0.079127    0.080600   -0.018152
C       0.531258   -1.109274   -0.927104
C       1.255885   -1.754552    0.274658
C       2.695621   -1.213524    0.521956
C       2.142711   -0.341760    1.687628
O       2.614411    0.963500    1.911534
C       0.690627   -0.638872    1.234003
H       1.596156    1.511335   -0.693227
H      -0.017215    1.822455   -1.302425
H       0.362439    2.210541    0.380859
H      -1.010336    0.099351    0.081915
H      -0.308212   -1.700040   -1.303544
H       1.171060   -0.848373   -1.777332
H       1.107806   -2.818864    0.456692
H       3.459232   -1.944113    0.799066
H       3.080268   -0.625965   -0.319099
H       2.308548   -0.864603    2.635580
H       2.524832    1.462050    1.094910
H      -0.028289   -0.833783    2.032031
