21

O       0.003848    1.425938   -0.123774
C       0.005314    0.003055    0.015874
C       0.781423   -0.428690    1.271087
C      -0.013330   -0.142333    2.547633
C      -1.270474   -1.020463    2.603080
O      -2.130691   -0.659202    3.680785
C      -2.084811   -0.955393    1.330369
C      -2.490091    0.366201    0.742561
C      -1.447736   -0.467677    0.039789
H       0.921656    1.713696   -0.171377
H       0.491342   -0.446692   -0.862820
H       0.997174   -1.503370    1.201242
H       1.753206    0.081360    1.289935
H       0.599660   -0.336638    3.436388
H      -0.299768    0.914016    2.582663
H      -0.939235   -2.066231    2.730568
H      -1.628671   -0.748640    4.497813
H      -2.804089   -1.763101    1.234552
H      -3.471744    0.442489    0.288915
H      -2.152308    1.274747    1.224526
H      -1.770805   -0.968663   -0.866483
