13

N       0.030362    1.429866   -0.147104
C       0.014916    0.022703   -0.050056
C      -1.083097   -0.796210    0.047204
N      -0.621355   -2.113249    0.016456
C       0.731344   -2.109466   -0.082365
O       1.367610   -3.309324   -0.113565
C       1.179749   -0.809745   -0.130484
H       0.788312    1.836288    0.388476
H      -0.838545    1.839662    0.173166
H      -2.134356   -0.575436    0.121360
H      -1.181926   -2.943651    0.078358
H       2.309764   -3.146089   -0.214695
H       2.203925   -0.484023   -0.230165
