17

C       0.126079    1.031782   -0.624295
N      -0.257773    0.292204    0.560715
C       0.573903   -0.521977    1.026353
O       0.277531   -1.215438    2.163915
C       1.108300   -2.242288    2.500733
C       1.700144   -3.248840    1.777042
C       2.428514   -4.040067    2.716992
C       2.244879   -3.494808    3.962564
N       1.437008   -2.386952    3.818750
H       1.128040    0.779822   -1.006874
H      -0.604811    0.848858   -1.419690
H       0.099618    2.105754   -0.408665
H       1.567541   -0.754017    0.621163
H       1.602046   -3.413426    0.716261
H       3.012002   -4.919378    2.492719
H       2.605971   -3.793099    4.932654
H       1.119744   -1.772164    4.548031
