21

C       0.066975    1.539743    0.077468
C      -0.008301    0.016055   -0.081476
C      -1.415499   -0.540417   -0.012423
C      -2.325986   -0.459971    1.266674
C      -3.127005   -1.577948    0.522974
C      -3.553100   -0.818029   -0.737944
C      -2.448032   -0.146466   -1.085247
C      -1.710246   -2.095878    0.067031
O      -1.554781   -2.917463   -1.042653
H       1.101223    1.891683    0.014658
H      -0.506973    2.053516   -0.700959
H      -0.335463    1.856896    1.045391
H       0.441585   -0.279549   -1.038493
H       0.600659   -0.460571    0.697152
H      -1.827284   -0.804875    2.179027
H      -2.850968    0.480879    1.440534
H      -3.852490   -2.216807    1.025115
H      -4.524260   -0.846832   -1.212167
H      -2.276681    0.517620   -1.921671
H      -1.159105   -2.571566    0.883904
H      -2.048886   -2.501322   -1.762871
