16

C      -0.059792    1.446278   -0.130492
N      -0.018313    0.001373   -0.121002
C      -1.159711   -0.808355    0.236539
C      -0.535470   -2.224558    0.163812
O       0.879683   -1.997192    0.317235
C       1.161995   -0.675924    0.082682
O       2.278594   -0.236660    0.059477
C      -1.028833   -3.147577    1.171432
C      -1.468499   -3.905089    1.992567
H       0.955720    1.805245   -0.303315
H      -0.714498    1.809486   -0.929538
H      -0.421975    1.847071    0.826544
H      -1.528375   -0.582699    1.247455
H      -1.989047   -0.696758   -0.468459
H      -0.692803   -2.649228   -0.835818
H      -1.846348   -4.580734    2.720266
