11

F       0.090409    0.049726    0.002381
C      -0.039375    1.351735    0.010894
C      -1.222437    1.997196    0.030620
F      -2.351813    1.303641    0.042631
C      -1.283838    3.462420    0.039192
O      -2.328374    4.088615    0.056340
C       0.056679    4.066820    0.023405
C       1.168270    3.320101    0.004176
O       1.151985    1.958617   -0.002499
H       0.129563    5.146994    0.027766
H       2.184656    3.688523   -0.008141
