21

C      -0.293682    1.525306    0.027289
C       0.063358    0.037342   -0.012872
O       0.728962   -0.338668   -1.233774
C       2.121243   -0.555322   -1.073152
C       2.800189    0.617320   -0.317175
C       2.439880   -0.148004    0.970498
C       2.448799   -1.486998    0.166150
C       1.198629   -1.971010    0.906666
C       0.897627   -0.466122    1.167680
H       0.566790    2.166623    0.228735
H      -0.732767    1.826525   -0.928031
H      -1.034854    1.702561    0.814672
H      -0.882104   -0.522707   -0.024021
H       2.499192   -0.848963   -2.053832
H       3.886051    0.597513   -0.460655
H       2.436055    1.627586   -0.512412
H       3.001128    0.003564    1.893719
H       3.334372   -2.114455    0.051163
H       0.445467   -2.542648    0.355566
H       1.467595   -2.508323    1.820687
H       0.446864   -0.184703    2.121746
