21

C       0.934552    1.169688   -0.060475
O       0.937728   -0.221164   -0.279252
C      -0.162086   -0.664841   -1.038899
C      -0.067836   -2.182328   -1.212829
O      -1.252065   -2.668403   -1.838231
C       1.198210   -2.606036   -1.958751
C       1.342198   -4.138150   -2.042696
C       2.495057   -4.558443   -2.828483
C       3.450329   -4.878324   -3.484569
H       0.983605    1.731472   -1.006676
H       0.034273    1.494060    0.484475
H       1.816326    1.408882    0.538657
H      -1.114549   -0.421140   -0.541920
H      -0.174087   -0.175602   -2.031540
H      -0.069561   -2.636067   -0.214362
H      -1.265519   -2.333101   -2.742230
H       1.174740   -2.186892   -2.974570
H       2.067858   -2.169100   -1.460358
H       1.419966   -4.550648   -1.028046
H       0.424318   -4.558373   -2.469732
H       4.291824   -5.174910   -4.059693
