19

O       0.033821    1.398221   -0.490968
C      -0.058086    0.111792    0.089904
C      -1.500098   -0.355776    0.192935
O      -2.005796   -0.391221   -1.141394
C      -3.372814   -0.675774   -1.241978
C      -4.340736    0.478890   -1.034984
C      -4.055413   -0.034395   -2.422839
C      -3.762603   -2.001599   -0.830192
C      -4.069767   -3.108420   -0.473324
H      -0.462326    1.348675   -1.315962
H       0.520670   -0.631170   -0.481202
H       0.376747    0.178404    1.092442
H      -1.561648   -1.350730    0.654865
H      -2.087108    0.350287    0.797268
H      -5.302691    0.264798   -0.585080
H      -3.891866    1.423205   -0.748227
H      -3.414860    0.563678   -3.060557
H      -4.817019   -0.608513   -2.936008
H      -4.344563   -4.087390   -0.166897
