18

O       0.375552    0.886451    0.788472
C      -0.004422    0.071680   -0.312356
C      -1.367667   -0.445389   -0.220837
C      -2.505372   -0.837141   -0.124911
C      -3.855554   -1.278464   -0.039155
C      -4.511190   -1.663464    1.237520
N      -4.275425   -2.737275    0.268956
C      -5.360901   -2.583677   -0.764515
C      -4.904297   -1.155819   -1.152089
H      -0.308087    1.555187    0.900405
H       0.114145    0.607696   -1.268041
H       0.710467   -0.758810   -0.327859
H      -3.874040   -1.732545    2.113136
H      -5.531424   -1.334759    1.434105
H      -5.223888   -3.319923   -1.557816
H      -6.368214   -2.689585   -0.348083
H      -5.618306   -0.333852   -1.048329
H      -4.455103   -1.113285   -2.144934
