16

O      -0.134199    0.006766   -0.487287
C      -0.121657    1.186561   -0.213478
C      -1.293788    2.174839   -0.139832
C      -0.636419    3.476341    0.236948
C       0.676958    3.266092    0.360358
N       1.011122    1.925424    0.098720
C       2.341517    1.345427    0.124084
C       3.040318    1.559512    1.389267
C       3.622424    1.759225    2.420792
H      -1.809577    2.199525   -1.106680
H      -2.025142    1.819147    0.595235
H      -1.146465    4.414547    0.389665
H       1.464374    3.954121    0.632572
H       2.196317    0.276416   -0.067347
H       2.948197    1.743115   -0.701396
H       4.135294    1.918934    3.337054
