19

C       0.719004    1.460055   -0.078665
C      -0.063827    0.159871    0.043466
C       0.126732   -0.820639   -1.133361
C       1.240141   -1.752299   -0.659000
C       1.151837   -3.197116   -1.129948
O       2.490066   -1.161131   -1.037549
C       1.147486   -1.632826    0.876138
O       1.700288   -2.333540    1.678552
O       0.393805   -0.567195    1.215488
H       1.770413    1.250782   -0.290805
H       0.311619    2.063978   -0.895895
H       0.647249    2.037533    0.846753
H      -1.121335    0.370951    0.223198
H      -0.789078   -1.392214   -1.304479
H       0.398979   -0.313447   -2.060633
H       1.307885   -3.247206   -2.210988
H       1.918122   -3.796625   -0.629158
H       0.178297   -3.635745   -0.890745
H       3.185087   -1.634902   -0.563745
