17

C       0.013607   -1.197487    0.100156
C       0.037557    0.003510    0.041284
C       0.036504    1.423563   -0.076354
C      -0.692516    2.225337   -1.182344
C       0.485492    3.223401   -1.154675
C       1.079253    3.933170   -2.302691
N       0.450717    4.684159   -1.190596
C       1.176385    2.429740   -0.065400
N       0.308195    2.267643    1.090447
H       0.001176   -2.257096    0.167324
H      -0.769369    1.682374   -2.127013
H      -1.681927    2.603030   -0.900441
H       2.157248    4.051346   -2.375251
H       0.564111    3.880301   -3.258698
H      -0.473445    5.004092   -1.472065
H       2.240524    2.267266    0.058360
H      -0.361777    3.030283    1.183239
