20

C       0.037256    1.627318    0.085650
C       0.108395    0.108581    0.001401
C       0.825825   -0.452112   -1.249512
O       1.887805    0.377545   -1.682065
C       1.377771   -1.822747   -0.751158
O       2.617940   -2.158993   -1.375796
C       1.542740   -1.640873    0.745385
C       2.208828   -0.402111    1.228094
N       0.739691   -0.495322    1.205222
H       1.034703    2.069068    0.041117
H      -0.545696    2.032431   -0.747197
H      -0.441784    1.926020    1.022073
H      -0.913858   -0.293089   -0.010700
H       0.109437   -0.589246   -2.073817
H       2.615792   -0.229223   -1.887927
H       0.639855   -2.613416   -0.937495
H       2.427800   -2.630943   -2.193251
H       1.532321   -2.532095    1.366186
H       2.637445   -0.397348    2.226286
H       2.705304    0.235126    0.505831
