19

C      -0.507516    1.313060   -0.435180
O      -0.743745   -0.062402   -0.627341
C      -0.827724   -0.779329    0.583090
C      -1.080077   -2.220373    0.253939
O      -1.205004   -3.161517    1.364017
C      -1.378146   -3.972672    0.161516
C      -2.195000   -2.894237   -0.614197
C      -1.273552   -2.991254   -1.849887
C      -0.300283   -3.213576   -0.671463
H      -0.459732    1.776323   -1.423326
H      -1.315268    1.787908    0.143248
H       0.443309    1.493305    0.090152
H       0.105464   -0.693832    1.165118
H      -1.645946   -0.399415    1.217982
H      -1.554982   -5.041832    0.272414
H      -3.267883   -2.714969   -0.544100
H      -1.438011   -3.849158   -2.508023
H      -1.136477   -2.074959   -2.424762
H       0.774308   -3.396225   -0.666201
