9

O       0.097831    0.005613    0.002731
C      -0.001099    1.183840    0.009569
O      -1.149807    1.918555    0.029488
N      -0.833720    3.290546    0.031454
C       0.455672    3.318354    0.012831
O       1.042037    2.092056   -0.001085
C       1.255565    4.476464    0.006935
C       1.949565    5.456824    0.001711
H       2.560307    6.327236   -0.002853
