21

C      -0.336318    1.519824   -0.030632
C       0.098590    0.057257    0.012814
O      -1.047287   -0.794210    0.168097
C       0.918897   -0.396271   -1.216923
C       1.562362   -1.712431   -0.754712
C       1.909563   -1.438192    0.707232
C       2.536839   -2.427511    1.585723
O       3.303328   -1.347797    1.043369
C       1.019553   -0.292804    1.199927
H       0.525237    2.190218   -0.108393
H      -0.982745    1.706291   -0.897020
H      -0.899075    1.777503    0.871421
H      -1.616623   -0.659975   -0.597515
H       0.293077   -0.500247   -2.109870
H       1.690723    0.349824   -1.440294
H       0.828292   -2.521898   -0.813890
H       2.448951   -2.002869   -1.322336
H       2.362413   -2.385232    2.660810
H       2.783334   -3.417246    1.200208
H       1.656563    0.556318    1.463955
H       0.420218   -0.556666    2.074330
