19

C      -0.242013    1.608923   -0.095390
C       0.006537    0.108780    0.001296
C       1.158298   -0.583130   -0.815341
C       2.434084    0.097694   -0.264404
C       2.111559    0.087082    1.275318
O       2.062390    1.366795    1.883895
C       0.713280   -0.552988    1.245586
C       0.986089   -1.692496    0.235905
O       0.929790   -2.885380    0.245587
H       0.647143    2.198317    0.123594
H      -0.603513    1.864898   -1.097468
H      -1.014153    1.907915    0.620916
H      -0.931151   -0.424407   -0.188872
H       1.089568   -0.769853   -1.885626
H       3.342356   -0.458557   -0.511354
H       2.547583    1.122765   -0.626800
H       2.814476   -0.555622    1.822920
H       2.961611    1.707350    1.933161
H       0.212102   -0.716272    2.196935
