16

N       0.033358   -1.111656   -0.105071
C       0.006925    0.045017   -0.054909
C      -0.028213    1.467905   -0.004231
N      -1.132504    2.231844    0.628421
C      -0.770905    3.390537   -0.286651
C       0.114992    4.331207    0.529705
N       1.242143    3.453518    0.926790
C       1.231984    2.347114   -0.004451
C       0.219644    2.505348   -1.097857
H      -2.006029    1.829090    0.293196
H      -1.614015    3.856963   -0.791919
H       0.437683    5.187337   -0.081437
H      -0.416804    4.701786    1.410609
H       2.129700    3.938681    0.884929
H       2.169376    1.834355   -0.180582
H       0.352416    2.407691   -2.167489
