14

O      -0.157484   -0.039910   -0.237806
C      -0.076647    1.134130    0.022444
C       1.231422    1.880965    0.000586
C       1.226724    3.322735   -0.593300
O       0.427175    3.783140    0.558749
C       1.482418    2.924892    1.131898
C       2.509014    3.675102    0.225353
C       3.792036    3.081269   -0.101690
N       4.814806    2.609781   -0.361984
H      -0.964011    1.738062    0.293789
H       2.059125    1.224889   -0.273578
H       0.942588    3.664817   -1.587141
H       1.505264    2.788321    2.211841
H       2.589696    4.737514    0.458345
