18

O      -0.004242    1.484243   -0.087193
C       0.047943    0.077620   -0.030325
C       0.044302   -0.607162    1.352157
C      -1.480690   -0.281341    1.573584
C      -1.324192   -0.594563    0.036013
C      -0.730764   -1.848987    0.778721
C      -1.779362   -1.743574    1.879567
C      -2.064911   -2.480365    3.119485
N      -3.032953   -2.464361    1.982881
H       0.891061    1.824777    0.003931
H       0.752722   -0.333013   -0.768358
H       0.813512   -0.633424    2.125610
H      -1.892020    0.626966    2.011161
H      -2.123114   -0.603249   -0.705053
H      -0.292977   -2.730146    0.310832
H      -1.613239   -3.450309    3.311114
H      -2.308329   -1.912492    4.014663
H      -3.799263   -1.827255    2.189617
