20

C      -0.154640    1.630103   -0.002484
C       0.042387    0.123146    0.011836
C       1.072238   -0.602212   -0.888411
C       2.391643    0.166815   -1.012291
C       3.080750    0.239792    0.376726
C       2.083032    0.150935    1.562571
C       0.831383   -0.614595    1.121070
O       1.219660   -1.625358    0.142168
H       0.780786    2.184080    0.112987
H      -0.613809    1.951227   -0.944144
H      -0.823692    1.940432    0.807915
H      -0.922258   -0.379568   -0.106885
H       0.726942   -1.022034   -1.837769
H       3.054706   -0.338212   -1.722085
H       2.195649    1.162786   -1.426648
H       3.758105   -0.613486    0.452648
H       3.701658    1.136972    0.456678
H       2.560322   -0.363659    2.402750
H       1.793235    1.142079    1.930966
H       0.272133   -1.045416    1.956770
