16

O       0.104244    1.310048    0.300161
C       0.025170   -0.009241   -0.196572
C      -1.385678   -0.576479   -0.087382
C      -2.393626    0.159646   -0.810660
N      -3.210627    0.739928   -1.388593
C      -1.715079   -2.075250    0.015556
C      -0.679442   -2.777871    0.886750
O      -0.854417   -1.788709    1.944215
C      -1.910543   -1.184469    1.209654
H      -0.045797    1.277292    1.251063
H       0.317574    0.043074   -1.249267
H       0.724193   -0.677006    0.318623
H      -2.429875   -2.544738   -0.644956
H      -1.023410   -3.758305    1.230839
H       0.354829   -2.846499    0.536747
H      -2.783443   -0.825733    1.741293
