19

C       0.608880    1.382799   -0.295240
C       0.067785    0.023943    0.152055
O       0.072783   -0.901704   -0.945335
C       0.986317   -1.936478   -0.717619
C       2.436032   -1.583724   -0.523366
C       1.533958   -1.854691    0.675216
C       0.822053   -0.682189    1.338087
C       1.752980    0.222697    2.118527
O       1.564030    0.572380    3.255808
H       1.656358    1.339960   -0.604120
H       0.023863    1.734265   -1.149213
H       0.514773    2.120305    0.509089
H      -0.980719    0.162092    0.440271
H       0.691102   -2.863579   -1.195119
H       3.174189   -2.345461   -0.751132
H       2.756195   -0.572772   -0.745106
H       1.718923   -2.737707    1.274904
H       0.088075   -1.063674    2.053302
H       2.666181    0.539216    1.568051
