16

O       0.046317   -0.037037    0.037457
C       0.003123    1.170733    0.003235
C      -1.293102    1.973948    0.022387
C      -1.340879    3.010994   -1.101587
N      -1.060172    4.410971   -0.747140
C      -0.073865    3.655746   -1.537304
C       1.206926    3.267455   -0.847148
O       1.207105    3.267713    0.565800
C       1.260871    1.990752   -0.084467
H      -2.124012    1.269324   -0.043775
H      -1.349764    2.499545    0.981618
H      -2.087880    2.827196   -1.869326
H      -1.580558    5.039741   -1.353530
H       0.045801    3.899254   -2.590203
H       2.131334    3.624722   -1.300701
H       2.192669    1.437895    0.008512
