17

C      -0.567330    1.328992   -0.123439
C       0.089965   -0.023250    0.030563
O       1.303096   -0.180092   -0.769970
C       2.067684   -0.634645    0.374537
C       2.866053   -1.881729    0.140130
C       0.871622   -0.357900    1.311305
O       1.561738    0.792981    1.877412
C       2.687358    0.585053    1.095002
O       3.690328    1.217352    1.085714
H       0.096883    2.127686    0.212652
H      -0.820185    1.499217   -1.173934
H      -1.491647    1.369946    0.462322
H      -0.607071   -0.834823   -0.218629
H       3.637307   -1.682758   -0.610587
H       3.361556   -2.207593    1.059441
H       2.224813   -2.686832   -0.228188
H       0.463503   -1.007364    2.081999
