21

C      -0.151641    1.490243    0.025449
C       0.112113   -0.004513    0.068782
O       0.590275   -0.402553   -1.213666
C       0.831478   -1.775162   -1.355940
C       0.929724   -2.186064   -2.827842
C       1.725542   -3.507169   -2.793168
C       2.794807   -3.275520   -1.709272
C       2.174796   -2.253914   -0.753310
O       2.658226   -1.857756    0.276581
H       0.771147    2.035606   -0.191714
H      -0.884100    1.732344   -0.750173
H      -0.537904    1.834425    0.989566
H       0.849259   -0.252494    0.840096
H      -0.815615   -0.555863    0.299280
H       0.036752   -2.366801   -0.861077
H      -0.046781   -2.279724   -3.307246
H       1.491451   -1.410107   -3.361196
H       1.065815   -4.332589   -2.501831
H       2.151727   -3.764775   -3.765215
H       3.119154   -4.172248   -1.175204
H       3.697631   -2.814889   -2.130402
