15

O      -0.044893    0.055319   -0.015181
C      -0.080383    1.245717    0.025729
C      -1.259770    2.215034    0.028573
C      -0.805271    3.246428   -1.046506
C       0.245132    3.542384    0.055192
N      -0.761528    3.154546    1.112809
C       1.122503    2.265886    0.044581
C       2.005225    2.118707    1.188073
N       2.725399    2.009346    2.085225
H      -2.256274    1.786575    0.101816
H      -0.479979    2.899338   -2.033340
H      -1.529793    4.057376   -1.147500
H       0.759182    4.496172    0.156326
H      -1.440479    3.912183    1.191462
H       1.701786    2.159370   -0.878109
