16

C       0.070550    1.253424   -0.230563
O      -0.069033   -0.073901    0.268100
C      -1.326694   -0.565956    0.176335
C      -2.664935   -0.271279    0.932509
C      -3.064498   -1.700408    0.807160
N      -3.467893   -0.717007   -0.259338
C      -2.176564   -1.014550   -1.014106
C      -1.738556   -2.023209    0.044187
O      -0.911608   -3.104771    0.003382
H       1.124477    1.517622   -0.127611
H      -0.223800    1.310667   -1.285979
H      -0.537764    1.962308    0.346033
H      -3.004003    0.509226    1.605015
H      -3.786460   -2.294666    1.357361
H      -2.053754   -0.961955   -2.088653
H      -1.302181   -3.773138   -0.572271
