25

C       0.038216    1.632374    0.068250
C       0.002708    0.102685    0.012159
C       0.700702   -0.471448   -1.225508
C       0.670874   -2.002968   -1.288905
C       1.365869   -2.558675   -2.536744
C       1.451842   -4.104563   -2.588786
C       0.069210   -4.784525   -2.662006
C       2.286897   -4.525760   -3.713689
C       2.958915   -4.858129   -4.653914
H       1.068926    2.003884    0.083217
H      -0.457165    2.072062   -0.804684
H      -0.465300    2.012374    0.962719
H       0.472680   -0.308452    0.915558
H      -1.040090   -0.240947    0.031329
H       0.229795   -0.061387   -2.129987
H       1.743856   -0.126541   -1.246906
H       1.153516   -2.412627   -0.390067
H      -0.372587   -2.340032   -1.254944
H       0.851559   -2.205910   -3.439964
H       2.385213   -2.158756   -2.590165
H       1.943682   -4.440028   -1.663897
H      -0.478741   -4.445657   -3.546876
H       0.177439   -5.870147   -2.727660
H      -0.528136   -4.554604   -1.775846
H       3.559980   -5.157487   -5.476204
