19

O      -0.398454    1.644259   -0.254313
C      -0.121623    0.248642   -0.157902
C      -1.436255   -0.474327   -0.379025
C      -2.074484   -0.600291   -1.802443
C      -2.317550   -2.091665   -1.522523
C      -1.008580   -2.857330   -1.338140
C       0.179081   -2.681004   -2.209533
O       0.727822   -1.646115   -2.512573
C      -1.562138   -1.994236   -0.209685
H       0.436697    2.104285   -0.373790
H       0.614706   -0.066549   -0.902067
H       0.267175   -0.007634    0.843251
H      -2.175145   -0.011388    0.284459
H      -2.997458   -0.029025   -1.911602
H      -1.413586   -0.379265   -2.642095
H      -3.221815   -2.642174   -1.752536
H      -1.198749   -3.910549   -1.141717
H       0.544515   -3.643597   -2.636378
H      -1.775621   -2.492138    0.730082
