21

C      -0.445560    1.512971    0.066440
C      -0.033700    0.067965   -0.012432
C      -0.103874   -0.631656   -1.145221
C       0.275463   -2.076888   -1.305568
C       0.997739   -2.678308   -0.114868
C       1.092426   -4.186561   -0.090834
O       2.209635   -1.995510    0.251955
C       1.084410   -1.905399    1.134434
C       0.454147   -0.541031    1.280071
H       0.393728    2.146213    0.382501
H      -0.807149    1.883220   -0.896457
H      -1.241440    1.660914    0.808436
H      -0.472045   -0.140058   -2.043528
H      -0.625574   -2.675357   -1.508224
H       0.909004   -2.201079   -2.196047
H       1.572732   -4.556588   -1.003800
H       1.686104   -4.519755    0.764072
H       0.098546   -4.642503   -0.027241
H       1.213598   -2.456027    2.068389
H       1.178822    0.134845    1.757859
H      -0.382405   -0.615231    1.991729
