19

C      -0.021784   -1.188567   -0.049693
C      -0.010951    0.014475   -0.019892
C       0.005103    1.462305    0.015391
C      -0.144023    2.077342    1.456734
C       1.399242    1.944235    1.588908
C       1.446201    2.109745    0.040743
C       1.290227    3.578123   -0.288720
C       0.334493    4.265537    0.337869
C      -0.549465    3.556687    1.340385
H      -0.035929   -2.249640   -0.081965
H      -0.666019    1.870769   -0.746291
H      -0.773072    1.533832    2.163874
H       1.930608    2.688886    2.185969
H       1.684193    0.936988    1.898664
H       2.234710    1.611502   -0.522558
H       1.948976    4.036615   -1.019427
H       0.168328    5.322636    0.152481
H      -1.604966    3.640195    1.044714
H      -0.476299    4.042643    2.323869
