20

C      -0.029012    1.544573    0.058158
C       0.130622    0.057077    0.004115
N      -0.807808   -0.852721    0.710565
C       0.646363   -0.929806    0.997493
C       1.300879   -1.773135   -0.131146
O       2.688756   -1.918026   -0.029316
C       0.459239   -2.915659   -0.778417
C      -0.118391   -1.890053   -1.807197
C       0.742898   -0.760584   -1.167884
H       0.884677    2.050396   -0.271439
H      -0.848087    1.880039   -0.589596
H      -0.249252    1.880165    1.078128
H      -1.234067   -0.315228    1.465635
H       1.026436   -0.789568    2.004647
H       2.871670   -2.552730    0.673227
H       1.107552   -3.668031   -1.234948
H      -0.272282   -3.399695   -0.129533
H       0.151591   -2.105467   -2.843289
H      -1.195048   -1.734396   -1.737743
H       1.433297   -0.202817   -1.800631
