17

C      -0.463497    1.429735    0.007797
C       0.097689    0.022262   -0.062624
N       1.381486   -0.126397   -0.769822
C       2.055869   -0.743579    0.269130
N       3.191396   -1.247425    0.486959
C       0.842856   -0.543350    1.222682
N       0.970655    0.375451    2.341014
C       0.276279   -1.808564    1.683243
N      -0.179768   -2.810731    2.033449
H       0.291072    2.147825    0.338004
H      -0.820573    1.742615   -0.978875
H      -1.305139    1.466778    0.704634
H      -0.667576   -0.678091   -0.415324
H       1.532323   -0.244213   -1.760721
H       3.791632   -1.231730   -0.339021
H       1.395510   -0.106520    3.127651
H       1.606952    1.126004    2.088962
