19

C       0.097876    1.424540   -0.062019
C      -0.067753   -0.094165    0.082984
C       0.679644   -0.657491    1.299070
N      -1.491480   -0.494385    0.076000
C      -1.988276   -1.360205   -0.979946
C      -1.334103   -2.676596   -0.984692
N      -0.793963   -3.697941   -0.993503
C      -2.375810   -0.092635    1.036999
O      -3.551301   -0.393487    1.075573
H       1.156538    1.675961   -0.176474
H      -0.440359    1.796466   -0.938509
H      -0.275612    1.956945    0.818109
H       0.358527   -0.562617   -0.809657
H       1.747674   -0.433638    1.218721
H       0.317075   -0.216836    2.232993
H       0.559163   -1.742103    1.358688
H      -3.061724   -1.483169   -0.808380
H      -1.848503   -0.900644   -1.966463
H      -1.903312    0.557315    1.793310
