16

C      -0.087924    1.511430   -0.006298
C       0.037175    0.018136    0.075725
O      -1.252506   -0.677511    0.065470
C      -0.913008   -1.438710    1.167111
O      -1.587270   -2.236412    1.729950
C       0.476864   -0.794144    1.314549
C       1.601815   -1.433007    0.459826
N       0.941399   -2.139556   -0.653035
C       1.157781   -0.681270   -0.749986
H       0.894383    1.982989    0.098050
H      -0.505274    1.805866   -0.975219
H      -0.744939    1.890659    0.780942
H       0.744030   -0.340135    2.266169
H       2.593325   -1.699761    0.799663
H       1.663856   -2.591977   -1.211477
H       1.724375   -0.248275   -1.565217
