13

O       0.106808    1.298811    0.087425
C       0.070093   -0.039062    0.054182
N       0.074812   -0.608724   -1.151328
C       0.037524   -1.950691   -1.170256
C      -0.003679   -2.695465    0.012255
C      -0.003809   -1.971515    1.198314
N       0.032714   -0.640966    1.243345
C       0.041265   -2.598522   -2.443742
C       0.043353   -3.172718   -3.500708
H       0.130827    1.592223   -0.833890
H      -0.033688   -3.776133   -0.003508
H      -0.034629   -2.482066    2.158146
H       0.045633   -3.668533   -4.440320
