17

O      -0.018410    1.426087   -0.009638
C      -0.024103    0.010213    0.001832
C      -1.429882   -0.487567    0.047667
C      -2.553098    0.232510    0.063699
C      -3.740547   -0.665315    0.038967
C      -3.862636   -1.532735   -1.168584
N      -3.238757   -2.062172    0.048696
C      -1.762336   -1.969285    0.071323
H       0.896240    1.721672   -0.002728
H       0.478978   -0.401555   -0.891851
H       0.529600   -0.387617    0.871726
H      -2.607017    1.312317    0.072976
H      -4.612698   -0.440972    0.647804
H      -4.811832   -1.998762   -1.421111
H      -3.228186   -1.284120   -2.017354
H      -1.332101   -2.518956   -0.776777
H      -1.386047   -2.454663    0.983216
