12

F       0.789431    0.436640    0.201163
C      -0.057038    1.428122   -0.059383
F       0.668972    2.498306   -0.452820
F      -0.834692    1.068877   -1.076031
C      -0.930042    1.724691    1.197614
O      -1.623107    0.854264    1.647092
N      -0.784228    3.015904    1.652753
C      -1.408929    3.622260    2.748075
N      -2.232642    3.030140    3.501747
H      -0.146070    3.592877    1.127388
H      -1.077945    4.663349    2.843776
H      -2.556451    3.666003    4.229090
