12

N      -0.027832    1.397056    0.010209
C       1.300514    1.758362   -0.000869
N       2.138960    0.738865   -0.014518
C       1.295336   -0.335840   -0.012000
C      -0.047843    0.013692    0.003032
C      -0.765175   -1.198678    0.003574
N       0.090856   -2.223781   -0.010313
N       1.341291   -1.691817   -0.019734
H      -0.808810    2.029266    0.021258
H       1.596595    2.797457    0.001781
H      -1.826194   -1.393416    0.012930
H       2.135308   -2.307133   -0.030774
