16

C      -0.102438    1.533334   -0.002780
C       0.015654    0.042255   -0.040101
C       0.746640   -0.795529   -1.125937
C      -0.286264   -1.824163   -0.620584
C       0.179695   -2.175645    0.803383
C       0.427352   -0.714777    1.241539
O       0.817876   -0.272736    2.285527
O      -1.210402   -0.716601   -0.356555
H       0.862588    1.972816    0.266920
H      -0.417402    1.930648   -0.970875
H      -0.829456    1.834672    0.757085
H       0.512873   -0.428633   -2.126579
H       1.813741   -1.007348   -1.013593
H      -0.703151   -2.608282   -1.250440
H      -0.609326   -2.645348    1.395488
H       1.086713   -2.783454    0.868280
