18

C       0.240154    1.497293    0.099392
O       1.055084    0.496608   -0.523546
C      -0.216988    0.106375   -0.002762
C      -0.337928   -0.805090    1.193413
C       0.074989   -2.272393    1.214237
C       1.516157   -2.319402    1.759003
C       1.920400   -0.878337    1.993306
N       0.491824   -0.586746    2.450815
C       0.355055   -2.113935    2.680923
H       0.605061    1.860085    1.058231
H      -0.161273    2.254120   -0.572110
H      -0.947943   -0.126389   -0.780974
H      -1.386540   -0.729843    1.510762
H      -0.364907   -3.122678    0.707298
H       2.124838   -3.206338    1.633685
H       2.575011   -0.771348    2.862315
H       2.275679   -0.272353    1.160200
H      -0.019286   -2.584758    3.578430
