19

C      -0.096301    1.570323   -0.141992
C       0.083732    0.071833   -0.078880
C       1.441564   -0.579461   -0.218018
O       2.564315    0.263408   -0.244698
C       3.406403    0.058598    0.859861
C       3.558982    1.207449    1.822146
C       2.693003    0.028668    2.182010
O       1.303757    0.210010    2.091458
C       0.725472   -0.609620    1.108854
H      -0.170476    1.906337   -1.181200
H      -1.011286    1.871071    0.378322
H       0.743088    2.087262    0.322261
H      -0.723268   -0.503278   -0.527410
H       1.548618   -1.486742   -0.809604
H       4.247536   -0.605119    0.670796
H       4.506673    1.324577    2.336273
H       3.048015    2.128435    1.567155
H       3.009738   -0.657026    2.965126
H       0.307189   -1.539090    1.490583
