20

C       0.050679    1.544498    0.034239
C       0.019173    0.021376   -0.026195
C       0.813293   -0.591004   -1.169815
C       1.290579   -1.965758   -0.756016
C       1.193987   -1.911994    0.795322
C       2.125767   -0.753370    0.827130
N       0.696803   -0.572604    1.142734
C       2.248932   -0.787444   -0.729911
C       3.486589   -0.504974   -1.524180
H       1.082937    1.908934    0.049498
H      -0.450494    1.978478   -0.836746
H      -0.452226    1.904538    0.935945
H      -1.018477   -0.334056   -0.030207
H       0.591026   -0.385505   -2.210653
H       1.289350   -2.844938   -1.384798
H       1.042469   -2.738420    1.477608
H       2.883333   -0.447587    1.538285
H       4.329722   -1.118807   -1.186669
H       3.329251   -0.716152   -2.586806
H       3.786387    0.546594   -1.435913
