15

N      -0.007194    0.988421    0.004340
H      -0.197254   -0.015117    0.002806
H       0.929059    1.352679   -0.001419
C      -1.119941    1.686495    0.014427
N      -1.325787    2.985349    0.019665
C      -2.770119    3.282610    0.030972
C      -3.410336    1.916674    0.031699
C      -4.838769    1.757726    0.041616
O      -5.457390    0.708214    0.042898
C      -2.422835    0.914585    0.021643
O      -2.357181   -0.319238    0.017638
H      -0.616227    3.700669    0.016566
H      -2.999111    3.886731    0.919709
H      -3.011932    3.891794   -0.850885
H      -5.394221    2.731349    0.048255
