12

N      -0.354038   -1.165106   -0.264956
C      -0.137481   -0.038759   -0.130600
C       0.084959    1.396517    0.053766
C      -0.489835    1.958718    1.399433
N       0.685191    2.431772    2.133728
C       1.682006    2.223744    1.380477
O       1.505879    1.660788    0.151186
C       3.040326    2.548914    1.707532
N       4.134248    2.813551    1.965439
H      -0.291385    1.931821   -0.821387
H      -1.180579    2.788816    1.229025
H      -1.013354    1.194531    1.978730
