25

C      -0.615469    1.537977    0.675274
C      -0.039879    0.242169    0.090522
C       0.882561   -0.473519    1.065199
C       0.300944   -1.360823    2.130634
C       1.127514   -1.981238    1.013437
C       0.426040   -2.847978   -0.017900
C       2.502378   -2.504864    1.393068
O       1.941414    0.324747    1.542561
C       2.881408    0.717601    0.559762
H       0.181459    2.230224    0.959512
H      -1.265025    2.039798   -0.048367
H      -1.205071    1.331315    1.574463
H      -0.858245   -0.426883   -0.187894
H       0.495616    0.461302   -0.842289
H       0.752834   -1.298249    3.114808
H      -0.773207   -1.519527    2.133349
H      -0.600193   -2.529031   -0.213918
H       0.965421   -2.848493   -0.972817
H       0.381087   -3.886406    0.332198
H       2.413477   -3.483113    1.880399
H       3.136432   -2.639600    0.508367
H       3.013326   -1.827538    2.079260
H       3.264154   -0.140538   -0.008527
H       2.464363    1.446395   -0.148940
H       3.712306    1.189859    1.090164
