19

C      -0.247666    1.497562    0.149081
C      -0.004318    0.011197    0.038023
C       1.335605   -0.525509   -0.368841
C       0.853571   -0.728635    1.063586
C       1.482298   -0.032597    2.147248
C       2.018014    0.539025    3.064424
C       2.604901    1.227822    4.204260
C       1.555526    1.636424    5.240909
O       1.736045    1.592737    6.427122
H       0.634983    2.012806    0.537783
H      -0.487882    1.925672   -0.830034
H      -1.082203    1.713231    0.824786
H      -0.861838   -0.562302   -0.303846
H       1.386704   -1.401117   -1.006283
H       2.140513    0.186856   -0.512438
H       0.523018   -1.734319    1.307477
H       3.369355    0.628905    4.710663
H       3.097417    2.156044    3.874279
H       0.598727    1.994025    4.801477
