22

C      -0.114980    1.557221    0.014661
C       0.010498    0.026725    0.001143
C       0.642792   -0.437758   -1.323148
C       0.618752   -1.955589   -1.585659
C       1.573826   -2.773169   -0.749102
C       1.632239   -2.780135    0.582318
C       0.754465   -1.971775    1.507792
C       0.756133   -0.451274    1.260051
H       0.872696    2.032125   -0.026168
H      -0.690837    1.917615   -0.844301
H      -0.613264    1.908349    0.924458
H      -1.007437   -0.392345    0.043615
H       0.104577    0.054929   -2.143140
H       1.679623   -0.079345   -1.376011
H      -0.409543   -2.319672   -1.437466
H       0.841548   -2.126801   -2.644103
H       2.263587   -3.412911   -1.295458
H       2.366903   -3.425232    1.059459
H      -0.283024   -2.334755    1.446412
H       1.069010   -2.153937    2.540813
H       1.793775   -0.092966    1.225639
H       0.292029    0.032583    2.129125
