19

C      -0.525349    1.370240   -0.033795
C       0.018522   -0.052420   -0.000392
C       1.223335   -0.368801   -0.985146
C       2.194853   -0.375140    0.229945
C       2.813651    0.796239    1.026302
C       2.132373   -0.046239    2.130506
C       2.443844   -1.405000    1.367168
O       1.083849   -1.898816    1.400620
C       0.964649   -0.449411    1.170124
H       0.269446    2.119136    0.027925
H      -1.068319    1.543711   -0.969109
H      -1.217409    1.544810    0.796182
H      -0.804942   -0.768476   -0.071587
H       1.131601   -1.335293   -1.483144
H       1.432347    0.398688   -1.734698
H       3.905926    0.857283    1.054530
H       2.392074    1.790320    0.856918
H       2.120367    0.106206    3.213898
H       3.255691   -2.117089    1.548780
