16

N      -0.269326    1.270045    0.441220
C      -0.141233    0.048374    0.155340
O      -1.204195   -0.777084    0.239512
C      -0.966134   -2.141128   -0.103082
C      -2.284827   -2.877469    0.062215
C      -2.169116   -4.342349   -0.271974
O      -1.150898   -4.888355   -0.632404
C      -3.441385   -5.192087   -0.141875
O      -4.501276   -4.746171    0.207616
H       0.621195    1.749351    0.326487
H       0.780118   -0.453833   -0.171712
H      -0.607773   -2.223045   -1.136524
H      -0.199538   -2.575440    0.550246
H      -2.664308   -2.777266    1.086649
H      -3.064681   -2.431525   -0.567444
H      -3.274617   -6.257661   -0.404914
