17

O      -0.148474    1.459399    0.014702
C       0.015332    0.069725   -0.010972
C      -0.384153   -0.705773    1.228638
C      -1.269515   -0.700647   -0.003509
C      -1.307098   -2.223165   -0.360235
O      -1.325893   -2.804784    0.957000
C      -0.072557   -2.230797    1.374373
C       0.843016   -2.672084    0.231976
C       0.069864   -2.666608   -0.854244
H       0.618137    1.838103    0.457567
H       0.846673   -0.286038   -0.614479
H      -0.667106   -0.150124    2.114254
H      -2.198172   -0.144448   -0.021218
H      -2.177550   -2.537611   -0.933164
H       0.182865   -2.553452    2.382277
H       1.908143   -2.842846    0.307405
H       0.345718   -2.830945   -1.886749
