19

C       0.195712    1.155569   -0.766875
C      -0.170242    0.199345    0.352756
O       0.535331    0.044513    1.327359
C      -1.446774   -0.568523    0.185926
C      -2.712021   -0.261687   -0.645885
C      -2.999233   -1.631464   -0.004574
C      -1.520526   -2.116403   -0.174035
C      -1.402604   -2.541147    1.301054
C      -2.264723   -1.263407    1.333288
H       1.171925    1.600802   -0.571370
H       0.207970    0.632441   -1.729834
H      -0.560934    1.944598   -0.848185
H      -3.325519    0.581283   -0.310679
H      -2.598592   -0.244622   -1.734936
H      -3.887578   -2.258483   -0.091523
H      -1.089058   -2.566814   -1.070124
H      -1.905456   -3.474870    1.572958
H      -0.414778   -2.473100    1.759271
H      -2.699977   -0.743203    2.187569
