19

C       0.043235    1.503516   -0.014453
C       0.028863    0.001952   -0.034053
C       0.527808   -0.954093   -1.147416
O       1.879099   -0.952420   -1.535575
C       0.016455   -1.906235   -0.045329
C       0.638429   -0.976204    1.066666
C      -0.329688   -0.975648    2.237140
C      -1.529725   -0.962772    1.653175
C      -1.215758   -0.955588    0.166810
H       1.061921    1.884075   -0.146332
H      -0.571219    1.912826   -0.823865
H      -0.345828    1.883657    0.936525
H      -0.047768   -0.942108   -2.077612
H       2.429031   -1.018187   -0.748461
H       0.000107   -2.999065   -0.039770
H       1.711557   -0.984844    1.269497
H      -0.068926   -0.979751    3.285927
H      -2.515903   -0.952575    2.095445
H      -2.023374   -0.946635   -0.566925
