18

C       0.325793    0.611469    1.067357
C      -0.239558    0.256595   -0.286954
O       0.102840    0.807615   -1.308978
C      -1.301650   -0.849347   -0.372320
C      -1.197752   -1.528307   -1.743443
O      -2.147876   -1.738687   -2.447658
N      -1.132865   -1.870614    0.660002
C      -1.958641   -1.728800    1.863278
C      -2.275890   -2.769973    0.853548
H       1.047387    1.421903    0.960237
H      -0.474948    0.914044    1.751538
H       0.801724   -0.269912    1.508316
H      -2.293489   -0.363281   -0.335189
H      -0.175024   -1.856742   -2.018348
H      -1.471672   -1.993904    2.796804
H      -2.626522   -0.871368    1.923146
H      -3.150459   -2.616181    0.226012
H      -2.020134   -3.808900    1.036376
