21

O       0.135682    1.393771   -0.042829
C       0.069946   -0.021851    0.041975
C      -1.370069   -0.546295    0.026543
C      -2.177646   -0.142005   -1.219169
C      -1.753922   -0.608025   -2.596272
C      -2.788989   -1.388888   -1.825067
C      -2.369695   -2.580230   -0.981775
C      -0.916657   -2.980905   -0.918356
C      -1.491728   -2.073031    0.145323
H      -0.236596    1.642568   -0.895327
H       0.652202   -0.494720   -0.763661
H       0.554996   -0.288589    0.986948
H      -1.878269   -0.103962    0.892017
H      -2.747123    0.779666   -1.162249
H      -2.107377   -0.020759   -3.437888
H      -0.767722   -1.028497   -2.752715
H      -3.806930   -1.387197   -2.197561
H      -3.118885   -3.344327   -0.809195
H      -0.700604   -4.000393   -0.615371
H      -0.217692   -2.598343   -1.652301
H      -1.576896   -2.483185    1.146121
