14

C      -0.332948    1.227152    0.018579
O       0.698431    0.232486    0.122274
C       0.868819   -0.525037   -0.958549
C       0.576986   -1.799647   -1.301768
O      -0.101933   -2.718989   -0.587029
N       1.090817   -2.090942   -2.561770
C       1.656889   -0.979558   -2.913330
O       2.298014   -0.709781   -4.048494
O       1.592137    0.022127   -2.041923
H      -0.079736    1.970082   -0.745263
H      -1.293345    0.760293   -0.225445
H      -0.391482    1.710933    0.994789
H      -0.097383   -3.530873   -1.106892
H       2.269598   -1.513613   -4.583001
