18

C      -0.018351    1.456624   -0.174040
C       0.038185   -0.051069   -0.039622
O       1.084379   -0.657840    0.005177
C      -1.306749   -0.782568    0.021810
C      -1.811259   -1.038897   -1.429911
O      -3.204823   -1.213881   -1.509741
C      -1.134097   -2.084466    0.834898
C      -2.286100   -2.976935    0.751938
N      -3.204645   -3.672898    0.651228
H       0.963273    1.845509   -0.446510
H      -0.769586    1.770273   -0.905245
H      -0.318429    1.886045    0.789913
H      -2.052823   -0.133636    0.492178
H      -1.585031   -0.165753   -2.050430
H      -1.254442   -1.887989   -1.854905
H      -3.436825   -2.068053   -1.126374
H      -0.245101   -2.606989    0.467084
H      -0.945361   -1.854331    1.888767
