19

C      -0.148981    1.341169   -0.004830
O       0.145742   -0.041421    0.076987
C       0.638103   -0.609603   -1.102814
C       1.262643   -1.970575   -0.751632
C       1.657265   -2.746382   -1.978593
C       1.148810   -2.517254   -3.188191
C       0.091625   -1.478013   -3.461743
C      -0.421313   -0.798359   -2.195538
O      -1.566877   -0.438605   -2.070091
H       0.734684    1.917692   -0.321696
H      -0.976289    1.540767   -0.693279
H      -0.432253    1.661445    1.000501
H       1.430922    0.024012   -1.545821
H       2.126778   -1.799591   -0.100949
H       0.538767   -2.535156   -0.147938
H       2.396397   -3.531930   -1.846228
H       1.477212   -3.109260   -4.038524
H       0.488126   -0.696123   -4.128574
H      -0.771491   -1.902800   -3.986496
