21

C      -0.148079    1.621015   -0.091402
C       0.087877    0.108321    0.065388
C       0.748019   -0.518077   -1.143931
C       2.030400   -0.928287   -1.132103
C       2.758011   -1.383812   -2.375609
O       2.373193   -2.652423   -2.898705
C       0.971622   -2.896679   -2.856657
C       0.086048   -1.717134   -3.190572
C      -0.046003   -0.664001   -2.368942
H       0.798546    2.148308   -0.244606
H      -0.796132    1.844906   -0.944661
H      -0.626881    2.031500    0.802874
H       0.715142   -0.069037    0.945528
H      -0.873132   -0.385129    0.259262
H       2.601452   -0.863563   -0.208966
H       2.615788   -0.620587   -3.157350
H       3.830671   -1.466926   -2.180379
H       0.798146   -3.718191   -3.557074
H       0.699725   -3.249637   -1.848497
H      -0.510477   -1.770291   -4.097035
H      -0.783037    0.104431   -2.593948
