20

C      -0.053576    1.394643    0.080717
O       0.178874    0.014960   -0.069582
C       0.669323   -0.590679    1.103981
C       0.858524   -2.079771    0.831991
C       1.432396   -2.791249    2.036445
N       0.507542   -3.218716    3.079620
C       1.247869   -4.255719    2.328656
C       0.422586   -5.145043    1.463639
O       0.780658   -6.237834    1.101627
H       0.869017    1.939616    0.337679
H      -0.429548    1.769370   -0.874303
H      -0.801252    1.600952    0.862988
H       1.627714   -0.129122    1.404412
H      -0.034518   -0.448375    1.941295
H      -0.107805   -2.509672    0.556926
H       1.529831   -2.202817   -0.025640
H       2.399378   -2.405215    2.361791
H       0.908249   -3.109895    4.006840
H       2.084394   -4.763812    2.802532
H      -0.566797   -4.725170    1.182539
