21

C       0.225646    1.165925    0.569543
C      -0.465672    0.053508   -0.230574
C       0.385466   -0.424154   -1.392874
O       1.693470   -0.961715   -1.109456
C       0.725160   -1.861392   -1.651342
C       0.241726   -2.942622   -0.703912
C       1.002280   -2.379108   -3.052201
C       0.401198    0.522675   -2.566412
O      -0.489291    1.294207   -2.820772
H       1.182185    0.816741    0.968889
H       0.416719    2.043282   -0.055888
H      -0.401276    1.484039    1.407272
H      -0.718057   -0.776707    0.431268
H      -1.401968    0.428176   -0.656459
H       0.241946   -2.604721    0.331895
H      -0.766513   -3.275858   -0.971174
H       0.907824   -3.809424   -0.773481
H       1.728772   -3.197203   -3.002046
H       0.084944   -2.776739   -3.498701
H       1.404280   -1.613490   -3.715233
H       1.328614    0.475709   -3.174835
