21

O      -0.071793    1.448955    0.029651
C      -0.024211    0.032460    0.116981
C       0.516331   -0.545829    1.434719
C      -0.042096   -1.983981    1.436942
C      -1.458193   -1.837939    0.853619
C      -2.507949   -1.174060    1.795029
C      -2.517203    0.101079    0.905215
C      -1.443014   -0.543474   -0.020669
O      -1.825609   -0.734272   -1.365009
H       0.829220    1.784464    0.060180
H       0.556851   -0.382396   -0.722655
H       1.608180   -0.506003    1.502995
H       0.113119    0.035729    2.272208
H       0.568556   -2.620570    0.785841
H      -0.038218   -2.440973    2.431546
H      -1.813646   -2.732464    0.340217
H      -3.463702   -1.699519    1.847126
H      -2.152222   -1.017598    2.817647
H      -3.457110    0.260242    0.372646
H      -2.217384    1.034047    1.386078
H      -1.803991    0.131197   -1.790418
