23

C      -0.086583    0.900109   -2.019225
C      -0.027844   -0.209773   -0.992404
C       1.251525   -0.608855   -0.256339
C       2.584061    0.069477   -0.487269
C       0.105472    0.051733    0.478297
C       0.207973    1.432151    1.138137
C      -0.620400    1.266270    2.432333
C      -0.609203   -0.253569    2.626525
O      -0.687326   -0.778683    1.310230
H       0.550611    1.749052   -1.756061
H       0.235007    0.542918   -3.003873
H      -1.109101    1.280336   -2.123746
H      -0.681902   -1.049429   -1.215081
H       1.324030   -1.675697   -0.059878
H       2.483216    1.145641   -0.653621
H       3.247792   -0.065800    0.374560
H       3.093325   -0.348399   -1.363110
H       1.248367    1.680215    1.369814
H      -0.182554    2.230916    0.502555
H      -0.203622    1.813024    3.281789
H      -1.647508    1.609666    2.277083
H       0.318546   -0.578266    3.126716
H      -1.460363   -0.638960    3.193979
